{
   "completed_at" : "20190517T152408Z",
   "completed_status" : "Success",
   "created_at" : "2019-05-17 15:21:43 +0000",
   "current_step" : 5,
   "description" : "",
   "eplusout_err" : "Program Version,EnergyPlus, Version 8.9.0-eba93e8e1b, YMD=2019.05.17 15:23,\n   ************* Beginning Zone Sizing Calculations\n   ** Warning ** ProcessScheduleInput: Schedule:Day:Interval=\"ECONOMIZER MAX OA FRACTION 100 PCT DEFAULT\", Blank Schedule Type Limits Name input -- will not be validated.\n   ** Warning ** ProcessScheduleInput: Schedule:Day:Interval=\"SCHEDULE DAY 1\", Blank Schedule Type Limits Name input -- will not be validated.\n   ** Warning ** ProcessScheduleInput: Schedule:Day:Interval=\"SCHEDULE DAY 10\", Blank Schedule Type Limits Name input -- will not be validated.\n   ** Warning ** ProcessScheduleInput: Schedule:Day:Interval=\"SCHEDULE DAY 11\", Blank Schedule Type Limits Name input -- will not be validated.\n   ** Warning ** ProcessScheduleInput: Schedule:Day:Interval=\"SCHEDULE DAY 12\", Blank Schedule Type Limits Name input -- will not be validated.\n   ** Warning ** ProcessScheduleInput: Schedule:Day:Interval=\"SCHEDULE DAY 13\", Blank Schedule Type Limits Name input -- will not be validated.\n   ** Warning ** ProcessScheduleInput: Schedule:Day:Interval=\"SCHEDULE DAY 14\", Blank Schedule Type Limits Name input -- will not be validated.\n   ** Warning ** ProcessScheduleInput: Schedule:Day:Interval=\"SCHEDULE DAY 15\", Blank Schedule Type Limits Name input -- will not be validated.\n   ** Warning ** ProcessScheduleInput: Schedule:Day:Interval=\"SCHEDULE DAY 16\", Blank Schedule Type Limits Name input -- will not be validated.\n   ** Warning ** ProcessScheduleInput: Schedule:Day:Interval=\"SCHEDULE DAY 17\", Blank Schedule Type Limits Name input -- will not be validated.\n   ** Warning ** ProcessScheduleInput: Schedule:Day:Interval=\"SCHEDULE DAY 18\", Blank Schedule Type Limits Name input -- will not be validated.\n   ** Warning ** ProcessScheduleInput: Schedule:Day:Interval=\"SCHEDULE DAY 19\", Blank Schedule Type Limits Name input -- will not be validated.\n   ** Warning ** ProcessScheduleInput: Schedule:Day:Interval=\"SCHEDULE DAY 2\", Blank Schedule Type Limits Name input -- will not be validated.\n   ** Warning ** ProcessScheduleInput: Schedule:Day:Interval=\"SCHEDULE DAY 20\", Blank Schedule Type Limits Name input -- will not be validated.\n   ** Warning ** ProcessScheduleInput: Schedule:Day:Interval=\"SCHEDULE DAY 21\", Blank Schedule Type Limits Name input -- will not be validated.\n   ** Warning ** ProcessScheduleInput: Schedule:Day:Interval=\"SCHEDULE DAY 22\", Blank Schedule Type Limits Name input -- will not be validated.\n   ** Warning ** ProcessScheduleInput: Schedule:Day:Interval=\"SCHEDULE DAY 23\", Blank Schedule Type Limits Name input -- will not be validated.\n   ** Warning ** ProcessScheduleInput: Schedule:Day:Interval=\"SCHEDULE DAY 24\", Blank Schedule Type Limits Name input -- will not be validated.\n   ** Warning ** ProcessScheduleInput: Schedule:Day:Interval=\"SCHEDULE DAY 25\", Blank Schedule Type Limits Name input -- will not be validated.\n   ** Warning ** ProcessScheduleInput: Schedule:Day:Interval=\"SCHEDULE DAY 5\", Blank Schedule Type Limits Name input -- will not be validated.\n   ** Warning ** ProcessScheduleInput: Schedule:Day:Interval=\"SCHEDULE DAY 6\", Blank Schedule Type Limits Name input -- will not be validated.\n   ** Warning ** ProcessScheduleInput: Schedule:Day:Interval=\"SCHEDULE DAY 7\", Blank Schedule Type Limits Name input -- will not be validated.\n   ** Warning ** ProcessScheduleInput: Schedule:Day:Interval=\"SCHEDULE DAY 8\", Blank Schedule Type Limits Name input -- will not be validated.\n   ** Warning ** ProcessScheduleInput: Schedule:Day:Interval=\"SCHEDULE DAY 9\", Blank Schedule Type Limits Name input -- will not be validated.\n   ** Warning ** ProcessScheduleInput: Schedule:Year=\"ECONOMIZER MAX OA FRACTION 100 PCT\", Blank Schedule Type Limits Name input -- will not be validated.\n   ** Warning ** ProcessScheduleInput: Schedule:Year=\"SCHEDULE RULESET 10\", Blank Schedule Type Limits Name input -- will not be validated.\n   ** Warning ** ProcessScheduleInput: Schedule:Year=\"SCHEDULE RULESET 11\", Blank Schedule Type Limits Name input -- will not be validated.\n   ** Warning ** ProcessScheduleInput: Schedule:Year=\"SCHEDULE RULESET 12\", Blank Schedule Type Limits Name input -- will not be validated.\n   ** Warning ** ProcessScheduleInput: Schedule:Year=\"SCHEDULE RULESET 13\", Blank Schedule Type Limits Name input -- will not be validated.\n   ** Warning ** ProcessScheduleInput: Schedule:Year=\"SCHEDULE RULESET 14\", Blank Schedule Type Limits Name input -- will not be validated.\n   ** Warning ** ProcessScheduleInput: Schedule:Year=\"SCHEDULE RULESET 15\", Blank Schedule Type Limits Name input -- will not be validated.\n   ** Warning ** ProcessScheduleInput: Schedule:Year=\"SCHEDULE RULESET 16\", Blank Schedule Type Limits Name input -- will not be validated.\n   ** Warning ** ProcessScheduleInput: Schedule:Year=\"SCHEDULE RULESET 17\", Blank Schedule Type Limits Name input -- will not be validated.\n   ** Warning ** ProcessScheduleInput: Schedule:Year=\"SCHEDULE RULESET 3\", Blank Schedule Type Limits Name input -- will not be validated.\n   ** Warning ** ProcessScheduleInput: Schedule:Year=\"SCHEDULE RULESET 4\", Blank Schedule Type Limits Name input -- will not be validated.\n   ** Warning ** ProcessScheduleInput: Schedule:Year=\"SCHEDULE RULESET 5\", Blank Schedule Type Limits Name input -- will not be validated.\n   ** Warning ** ProcessScheduleInput: Schedule:Year=\"SCHEDULE RULESET 6\", Blank Schedule Type Limits Name input -- will not be validated.\n   ** Warning ** ProcessScheduleInput: Schedule:Year=\"SCHEDULE RULESET 7\", Blank Schedule Type Limits Name input -- will not be validated.\n   ** Warning ** ProcessScheduleInput: Schedule:Year=\"SCHEDULE RULESET 8\", Blank Schedule Type Limits Name input -- will not be validated.\n   ** Warning ** ProcessScheduleInput: Schedule:Year=\"SCHEDULE RULESET 9\", Blank Schedule Type Limits Name input -- will not be validated.\n   ** Warning ** ProcessScheduleInput: Schedule:Constant=\"ALWAYS ON CONTINUOUS\", Blank Schedule Type Limits Name input -- will not be validated.\n   ** Warning ** CheckUsedConstructions: There are 14 nominally unused constructions in input.\n   **   ~~~   ** For explicit details on each unused construction, use Output:Diagnostics,DisplayExtraWarnings;\n   ** Warning ** GetInternalHeatGains: ElectricEquipment Combination of ZoneList and Object Name generate a name too long.\n   **   ~~~   ** Object Name=\"SPACE FUNCTION OFFICE ENCLOSED <= 25 M2 ELEC EQUIP\".\n   **   ~~~   ** ZoneList/Zone Name=\"SP-PERIMETER_ZN_1 SYS-3 FLR-1 SCH-A HPLCMT-SOUTH ZN\".\n   **   ~~~   ** Item length=[101] > Maximum Length=[100]. You may need to shorten the names.\n   **   ~~~   ** Shortening the Object Name by [2] characters will assure uniqueness for this ZoneList.\n   **   ~~~   ** name that will be used (may be needed in reporting)=\"SP-PERIMETER_ZN_1 SYS-3 FLR-1 SCH-A HPLCMT-SOUTH ZN SPACE FUNCTION OFFICE ENCLOSED <= 25 M2 ELEC EQUIP\".\n   ** Warning ** GetInternalHeatGains: ElectricEquipment Combination of ZoneList and Object Name generate a name too long.\n   **   ~~~   ** Object Name=\"SPACE FUNCTION OFFICE ENCLOSED <= 25 M2 ELEC EQUIP\".\n   **   ~~~   ** ZoneList/Zone Name=\"SP-PERIMETER_ZN_3 SYS-3 FLR-1 SCH-A HPLCMT-NORTH ZN\".\n   **   ~~~   ** Item length=[101] > Maximum Length=[100]. You may need to shorten the names.\n   **   ~~~   ** Shortening the Object Name by [2] characters will assure uniqueness for this ZoneList.\n   **   ~~~   ** name that will be used (may be needed in reporting)=\"SP-PERIMETER_ZN_3 SYS-3 FLR-1 SCH-A HPLCMT-NORTH ZN SPACE FUNCTION OFFICE ENCLOSED <= 25 M2 ELEC EQUIP\".\n   ************* Beginning System Sizing Calculations\n   ************* Beginning Plant Sizing Calculations\n   ** Warning ** GetVarSpeedCoilInput: COIL:HEATING:DX:VARIABLESPEED=\"SYS_3_PSZ SP-CORE_ZN SYS-3 FLR-1 SCH-A HPLCMT-CORE ZN CCASHP DX HTG COIL\", \n   **   ~~~   ** ...Minimum Outdoor Dry-Bulb Temperature for Compressor Operation = 0.0 for defrost control = TIMED.\n   ** Warning ** GetVarSpeedCoilInput: COIL:HEATING:DX:VARIABLESPEED=\"SYS_3_PSZ SP-PERIMETER_ZN_1 SYS-3 FLR-1 SCH-A HPLCMT-SOUTH ZN CCASHP DX HTG COIL\", \n   **   ~~~   ** ...Minimum Outdoor Dry-Bulb Temperature for Compressor Operation = 0.0 for defrost control = TIMED.\n   ** Warning ** GetVarSpeedCoilInput: COIL:HEATING:DX:VARIABLESPEED=\"SYS_3_PSZ SP-PERIMETER_ZN_2 SYS-3 FLR-1 SCH-A HPLCMT-EAST ZN CCASHP DX HTG COIL\", \n   **   ~~~   ** ...Minimum Outdoor Dry-Bulb Temperature for Compressor Operation = 0.0 for defrost control = TIMED.\n   ** Warning ** GetVarSpeedCoilInput: COIL:HEATING:DX:VARIABLESPEED=\"SYS_3_PSZ SP-PERIMETER_ZN_3 SYS-3 FLR-1 SCH-A HPLCMT-NORTH ZN CCASHP DX HTG COIL\", \n   **   ~~~   ** ...Minimum Outdoor Dry-Bulb Temperature for Compressor Operation = 0.0 for defrost control = TIMED.\n   ** Warning ** GetVarSpeedCoilInput: COIL:HEATING:DX:VARIABLESPEED=\"SYS_3_PSZ SP-PERIMETER_ZN_4 SYS-3 FLR-1 SCH-A HPLCMT-WEST ZN CCASHP DX HTG COIL\", \n   **   ~~~   ** ...Minimum Outdoor Dry-Bulb Temperature for Compressor Operation = 0.0 for defrost control = TIMED.\n   ** Warning ** SizePlantLoop: Calculated Plant Sizing Design Volume Flow Rate=[0.00] is too small. Set to 0.0\n   **   ~~~   ** ..occurs for PlantLoop=HOT WATER LOOP\n   ** Warning ** SizePump: Calculated Pump Nominal Volume Flow Rate=[0.00] is too small. Set to 0.0\n   **   ~~~   ** ..occurs for Pump=PUMP VARIABLE SPEED 1\n   ** Warning ** Check input. Pump nominal power or motor efficiency is set to 0, for pump=PUMP VARIABLE SPEED 1\n   ** Warning ** Check input. Pump nominal flow rate is set or calculated = 0, for pump=PUMP VARIABLE SPEED 1\n   ** Warning ** Output:Meter: invalid Key Name=\"DISTRICTCOOLING:FACILITY\" - not found.\n   ** Warning ** Output:Meter: invalid Key Name=\"DISTRICTHEATING:FACILITY\" - not found.\n   ** Warning ** Output:Meter:MeterFileOnly requested for \"Electricity:Facility\" (TimeStep), already on \"Output:Meter\". Will report to both eplusout.eso and eplusout.mtr\n   ************* Testing Individual Branch Integrity\n   ************* All Branches passed integrity testing\n   ************* Testing Individual Supply Air Path Integrity\n   ************* All Supply Air Paths passed integrity testing\n   ************* Testing Individual Return Air Path Integrity\n   ************* All Return Air Paths passed integrity testing\n   ** Warning ** Potential Node Connection Error for object ZONEHVAC:BASEBOARD:CONVECTIVE:WATER, name=ZONE HVAC BASEBOARD CONVECTIVE WATER 1\n   **   ~~~   **   Node Types are still UNDEFINED -- See Branch/Node Details file for further information\n   **   ~~~   **   Inlet Node : NODE 12\n   **   ~~~   **   Outlet Node: NODE 31\n   ** Warning ** Potential Node Connection Error for object ZONEHVAC:BASEBOARD:CONVECTIVE:WATER, name=ZONE HVAC BASEBOARD CONVECTIVE WATER 2\n   **   ~~~   **   Node Types are still UNDEFINED -- See Branch/Node Details file for further information\n   **   ~~~   **   Inlet Node : NODE 43\n   **   ~~~   **   Outlet Node: NODE 44\n   ** Warning ** Potential Node Connection Error for object ZONEHVAC:BASEBOARD:CONVECTIVE:WATER, name=ZONE HVAC BASEBOARD CONVECTIVE WATER 3\n   **   ~~~   **   Node Types are still UNDEFINED -- See Branch/Node Details file for further information\n   **   ~~~   **   Inlet Node : NODE 56\n   **   ~~~   **   Outlet Node: NODE 57\n   ** Warning ** Potential Node Connection Error for object ZONEHVAC:BASEBOARD:CONVECTIVE:WATER, name=ZONE HVAC BASEBOARD CONVECTIVE WATER 4\n   **   ~~~   **   Node Types are still UNDEFINED -- See Branch/Node Details file for further information\n   **   ~~~   **   Inlet Node : NODE 69\n   **   ~~~   **   Outlet Node: NODE 70\n   ** Warning ** Potential Node Connection Error for object ZONEHVAC:BASEBOARD:CONVECTIVE:WATER, name=ZONE HVAC BASEBOARD CONVECTIVE WATER 5\n   **   ~~~   **   Node Types are still UNDEFINED -- See Branch/Node Details file for further information\n   **   ~~~   **   Inlet Node : NODE 82\n   **   ~~~   **   Outlet Node: NODE 83\n   ************* There were 5 node connection errors noted.\n   ************* Beginning Simulation\n   ** Warning ** Processing Monthly Tabular Reports: Variable names not valid for this simulation\n   **   ~~~   ** ...use Output:Diagnostics,DisplayExtraWarnings; to show more details on individual variables.\n   ** Warning ** GetInputEconomicsTariff: UtilityCost:Tariff=\"NONEOIL\" missing meter\n   **   ~~~   ** Meter referenced is not present due to a lack of equipment that uses that energy source/meter:\"FUELOIL#2:FACILITY\".\n   ** Warning ** The resource referenced by LifeCycleCost:UsePriceEscalation= \"U.S. AVG  COMMERCIAL-DISTILLATE OIL\" has no energy cost. \n   **   ~~~   ** ... It is likely that the wrong resource is used. The resource should match the meter used in Utility:Tariff.\n   ** Warning ** The resource referenced by LifeCycleCost:UsePriceEscalation= \"U.S. AVG  COMMERCIAL-RESIDUAL OIL\" has no energy cost. \n   **   ~~~   ** ... It is likely that the wrong resource is used. The resource should match the meter used in Utility:Tariff.\n   ** Warning ** The resource referenced by LifeCycleCost:UsePriceEscalation= \"U.S. AVG  COMMERCIAL-COAL\" has no energy cost. \n   **   ~~~   ** ... It is likely that the wrong resource is used. The resource should match the meter used in Utility:Tariff.\n   ************* Simulation Error Summary *************\n   ** Severe  ** Orphaned ZoneHVAC object found.  This was object never referenced in the input, and was not used.\n   **   ~~~   **  -- Object type: ZoneHVAC:Baseboard:Convective:Water\n   **   ~~~   **  -- Object name: Zone HVAC Baseboard Convective Water 1\n   ** Severe  ** Orphaned ZoneHVAC object found.  This was object never referenced in the input, and was not used.\n   **   ~~~   **  -- Object type: ZoneHVAC:Baseboard:Convective:Water\n   **   ~~~   **  -- Object name: Zone HVAC Baseboard Convective Water 2\n   ** Severe  ** Orphaned ZoneHVAC object found.  This was object never referenced in the input, and was not used.\n   **   ~~~   **  -- Object type: ZoneHVAC:Baseboard:Convective:Water\n   **   ~~~   **  -- Object name: Zone HVAC Baseboard Convective Water 3\n   ** Severe  ** Orphaned ZoneHVAC object found.  This was object never referenced in the input, and was not used.\n   **   ~~~   **  -- Object type: ZoneHVAC:Baseboard:Convective:Water\n   **   ~~~   **  -- Object name: Zone HVAC Baseboard Convective Water 4\n   ** Severe  ** Orphaned ZoneHVAC object found.  This was object never referenced in the input, and was not used.\n   **   ~~~   **  -- Object type: ZoneHVAC:Baseboard:Convective:Water\n   **   ~~~   **  -- Object name: Zone HVAC Baseboard Convective Water 5\n   ************* There are 5 unused objects in input.\n   ************* Use Output:Diagnostics,DisplayUnusedObjects; to see them.\n   ************* There are 9 unused schedules in input.\n   ************* There are 9 unused week schedules in input.\n   ************* There are 18 unused day schedules in input.\n   ************* Use Output:Diagnostics,DisplayUnusedSchedules; to see them.\n   *************\n   ************* ===== Final Error Summary =====\n   ************* The following error categories occurred.  Consider correcting or noting.\n   ************* Node Connection Errors\n   ************* ..Node connection errors are often caused by spelling mistakes in a node name field.\n   ************* ..To track down the problem, search the idf file for each node name listed to see if it\n   ************* ..occurs in the expected input fields.\n   ************* Nominally Unused Constructions\n   ************* ..The nominally unused constructions warning is provided to alert you to potential conditions that can cause\n   ************* ..extra time during simulation. Each construction is calculated by the algorithm indicated in the HeatBalanceAlgorithm\n   ************* ..object. You may remove the constructions indicated (when you use the DisplayExtraWarnings option).\n   *************\n   ************* EnergyPlus Warmup Error Summary. During Warmup: 0 Warning; 0 Severe Errors.\n   ************* EnergyPlus Sizing Error Summary. During Sizing: 44 Warning; 0 Severe Errors.\n   ************* EnergyPlus Completed Successfully-- 66 Warning; 5 Severe Errors; Elapsed Time=00hr 00min 42.68sec\n",
   "file_format_version" : "0.0.1",
   "file_paths" : [ "../weather", "../seeds", "../seed" ],
   "hash" : "5657F943",
   "measure_paths" : [ "../measures" ],
   "name" : "DOE Autogenerated 22",
   "osa_id" : "68c8b576-a9a1-447a-a2db-fd41b0db3a06",
   "osd_id" : "3d902901-8ca7-4ab6-86dd-9a3adac590c9",
   "run_directory" : "./run",
   "seed_file" : "dummy.osm",
   "started_at" : "20190517T152147Z",
   "steps" : [
      {
         "arguments" : {
            "building_type" : "SmallOffice",
            "epw_file" : "CAN_NS_CFB.Greenwood.713970_CWEC2016.epw",
            "new_auto_zoner" : true,
            "template" : "NECB2017"
         },
         "description" : "This measure creates an NECB prototype building from scratch and uses it as the base for an analysis.",
         "measure_dir_name" : "btap_create_necb_prototype_building",
         "name" : "btap_create_necb_prototype_building",
         "result" : {
            "completed_at" : "20190517T152257Z",
            "measure_class_name" : "BTAPCreateNECBPrototypeBuilding",
            "measure_display_name" : "BTAPCreateNECBPrototypeBuilding",
            "measure_name" : "btap_create_necb_prototype_building",
            "measure_taxonomy" : "Whole Building.Space Types",
            "measure_type" : "ModelMeasure",
            "measure_uid" : "3e9acd53-8602-4749-a655-7cbbe48e8b30",
            "measure_version_id" : "fce385ec-90b4-4b1d-9950-ad7bead32503",
            "measure_version_modified" : "20190401T145206Z",
            "measure_xml_checksum" : "2C38F48B",
            "started_at" : "20190517T152148Z",
            "stderr" : "",
            "stdout" : "[OpenStudio.Measure] <0> OSArgumentVector is deprecated, use OpenStudio::Measure::OSArgumentVector instead.\n[openstudio.EpwFile] <0> Successive data points (2011-Jan-31 to 2008-Feb-01, ending on line 753) are greater than 1 day apart in EPW file '/usr/local/lib/ruby/gems/2.2.0/bundler/gems/openstudio-standards-f0e9e7df79cf/data/weather/CAN_NS_CFB.Greenwood.713970_CWEC2016.epw'. Data will be treated as typical (TMY)\n[openstudio.setFileExtension] <0> Path p, '/usr/local/lib/ruby/gems/2.2.0/bundler/gems/openstudio-standards-f0e9e7df79cf/data/weather/CAN_NS_CFB.Greenwood.713970_CWEC2016.ddy', has an unexpected file extension. Was expecting 'idf'.\n[openstudio.setFileExtension] <0> Path p, '/usr/local/lib/ruby/gems/2.2.0/bundler/gems/openstudio-standards-f0e9e7df79cf/data/weather/CAN_NS_CFB.Greenwood.713970_CWEC2016.ddy', has an unexpected file extension. Was expecting 'idf'.\n[openstudio.EpwFile] <0> Successive data points (2011-Jan-31 to 2008-Feb-01, ending on line 753) are greater than 1 day apart in EPW file '/usr/local/lib/ruby/gems/2.2.0/bundler/gems/openstudio-standards-f0e9e7df79cf/data/weather/CAN_NS_CFB.Greenwood.713970_CWEC2016.epw'. Data will be treated as typical (TMY)\n[openstudio.setFileExtension] <0> Path p, '/usr/local/lib/ruby/gems/2.2.0/bundler/gems/openstudio-standards-f0e9e7df79cf/data/weather/CAN_NS_CFB.Greenwood.713970_CWEC2016.ddy', has an unexpected file extension. Was expecting 'idf'.\n[openstudio.weather.Model] <0> Could not find ground temperatures; will use generic temperatures, which will skew results.\n[openstudio.EpwFile] <0> Successive data points (2011-Jan-31 to 2008-Feb-01, ending on line 753) are greater than 1 day apart in EPW file '/usr/local/lib/ruby/gems/2.2.0/bundler/gems/openstudio-standards-f0e9e7df79cf/data/weather/CAN_NS_CFB.Greenwood.713970_CWEC2016.epw'. Data will be treated as typical (TMY)\n[openstudio.setFileExtension] <0> Path p, '/usr/local/lib/ruby/gems/2.2.0/bundler/gems/openstudio-standards-f0e9e7df79cf/data/weather/CAN_NS_CFB.Greenwood.713970_CWEC2016.ddy', has an unexpected file extension. Was expecting 'idf'.\n[openstudio.setFileExtension] <0> Path p, '/usr/local/lib/ruby/gems/2.2.0/bundler/gems/openstudio-standards-f0e9e7df79cf/data/weather/CAN_NS_CFB.Greenwood.713970_CWEC2016.ddy', has an unexpected file extension. Was expecting 'idf'.\n[openstudio.EpwFile] <0> Successive data points (2011-Jan-31 to 2008-Feb-01, ending on line 753) are greater than 1 day apart in EPW file '/usr/local/lib/ruby/gems/2.2.0/bundler/gems/openstudio-standards-f0e9e7df79cf/data/weather/CAN_NS_CFB.Greenwood.713970_CWEC2016.epw'. Data will be treated as typical (TMY)\n[openstudio.setFileExtension] <0> Path p, '/usr/local/lib/ruby/gems/2.2.0/bundler/gems/openstudio-standards-f0e9e7df79cf/data/weather/CAN_NS_CFB.Greenwood.713970_CWEC2016.ddy', has an unexpected file extension. Was expecting 'idf'.\n[openstudio.setFileExtension] <0> Path p, '/usr/local/lib/ruby/gems/2.2.0/bundler/gems/openstudio-standards-f0e9e7df79cf/data/weather/CAN_NS_CFB.Greenwood.713970_CWEC2016.ddy', has an unexpected file extension. Was expecting 'idf'.\n[utilities.idf.WorkspaceObject] <0> Object of type 'Schedule:Constant' and named 'Always Off Discrete', points to an object named OnOff 1 from field 1, but that object cannot be located.\n[utilities.idf.WorkspaceObject] <0> Object of type 'Schedule:Constant' and named 'Always On Continuous', points to an object named Fractional 1 from field 1, but that object cannot be located.\n[openstudio.EpwFile] <0> Successive data points (2011-Jan-31 to 2008-Feb-01, ending on line 753) are greater than 1 day apart in EPW file '/usr/local/lib/ruby/gems/2.2.0/bundler/gems/openstudio-standards-f0e9e7df79cf/data/weather/CAN_NS_CFB.Greenwood.713970_CWEC2016.epw'. Data will be treated as typical (TMY)\n[openstudio.setFileExtension] <0> Path p, '/usr/local/lib/ruby/gems/2.2.0/bundler/gems/openstudio-standards-f0e9e7df79cf/data/weather/CAN_NS_CFB.Greenwood.713970_CWEC2016.ddy', has an unexpected file extension. Was expecting 'idf'.\n[openstudio.setFileExtension] <0> Path p, '/usr/local/lib/ruby/gems/2.2.0/bundler/gems/openstudio-standards-f0e9e7df79cf/data/weather/CAN_NS_CFB.Greenwood.713970_CWEC2016.ddy', has an unexpected file extension. Was expecting 'idf'.\n[openstudio.EpwFile] <0> Successive data points (2011-Jan-31 to 2008-Feb-01, ending on line 753) are greater than 1 day apart in EPW file '/usr/local/lib/ruby/gems/2.2.0/bundler/gems/openstudio-standards-f0e9e7df79cf/data/weather/CAN_NS_CFB.Greenwood.713970_CWEC2016.epw'. Data will be treated as typical (TMY)\n[openstudio.setFileExtension] <0> Path p, '/usr/local/lib/ruby/gems/2.2.0/bundler/gems/openstudio-standards-f0e9e7df79cf/data/weather/CAN_NS_CFB.Greenwood.713970_CWEC2016.ddy', has an unexpected file extension. Was expecting 'idf'.\n[openstudio.setFileExtension] <0> Path p, '/usr/local/lib/ruby/gems/2.2.0/bundler/gems/openstudio-standards-f0e9e7df79cf/data/weather/CAN_NS_CFB.Greenwood.713970_CWEC2016.ddy', has an unexpected file extension. Was expecting 'idf'.\n[utilities.idf.WorkspaceObject] <0> Object of type 'Schedule:Constant' and named 'Always Off Discrete', points to an object named OnOff 1 from field 1, but that object cannot be located.\n[utilities.idf.WorkspaceObject] <0> Object of type 'Schedule:Constant' and named 'Always On Continuous', points to an object named Fractional 1 from field 1, but that object cannot be located.\n[openstudio.standards.Fan] <0> For Fan Constant Volume 1, there is no greater nominal HP.  Use the efficiency of the largest motor category.\n[openstudio.standards.Fan] <0> For Fan Constant Volume 2, there is no greater nominal HP.  Use the efficiency of the largest motor category.\n[openstudio.standards.Fan] <0> For Fan Constant Volume 3, there is no greater nominal HP.  Use the efficiency of the largest motor category.\n[openstudio.standards.Fan] <0> For Fan Constant Volume 4, there is no greater nominal HP.  Use the efficiency of the largest motor category.\n[openstudio.standards.Fan] <0> For Fan Constant Volume 5, there is no greater nominal HP.  Use the efficiency of the largest motor category.\n[openstudio.EpwFile] <0> Successive data points (2011-Jan-31 to 2008-Feb-01, ending on line 753) are greater than 1 day apart in EPW file '/usr/local/lib/ruby/gems/2.2.0/bundler/gems/openstudio-standards-f0e9e7df79cf/data/weather/CAN_NS_CFB.Greenwood.713970_CWEC2016.epw'. Data will be treated as typical (TMY)\n[openstudio.setFileExtension] <0> Path p, '/usr/local/lib/ruby/gems/2.2.0/bundler/gems/openstudio-standards-f0e9e7df79cf/data/weather/CAN_NS_CFB.Greenwood.713970_CWEC2016.ddy', has an unexpected file extension. Was expecting 'idf'.\n[openstudio.setFileExtension] <0> Path p, '/usr/local/lib/ruby/gems/2.2.0/bundler/gems/openstudio-standards-f0e9e7df79cf/data/weather/CAN_NS_CFB.Greenwood.713970_CWEC2016.ddy', has an unexpected file extension. Was expecting 'idf'.\n[openstudio.EpwFile] <0> Successive data points (2011-Jan-31 to 2008-Feb-01, ending on line 753) are greater than 1 day apart in EPW file '/usr/local/lib/ruby/gems/2.2.0/bundler/gems/openstudio-standards-f0e9e7df79cf/data/weather/CAN_NS_CFB.Greenwood.713970_CWEC2016.epw'. Data will be treated as typical (TMY)\n[openstudio.setFileExtension] <0> Path p, '/usr/local/lib/ruby/gems/2.2.0/bundler/gems/openstudio-standards-f0e9e7df79cf/data/weather/CAN_NS_CFB.Greenwood.713970_CWEC2016.ddy', has an unexpected file extension. Was expecting 'idf'.\n[openstudio.setFileExtension] <0> Path p, '/usr/local/lib/ruby/gems/2.2.0/bundler/gems/openstudio-standards-f0e9e7df79cf/data/weather/CAN_NS_CFB.Greenwood.713970_CWEC2016.ddy', has an unexpected file extension. Was expecting 'idf'.\n[openstudio.EpwFile] <0> Successive data points (2011-Jan-31 to 2008-Feb-01, ending on line 753) are greater than 1 day apart in EPW file '/usr/local/lib/ruby/gems/2.2.0/bundler/gems/openstudio-standards-f0e9e7df79cf/data/weather/CAN_NS_CFB.Greenwood.713970_CWEC2016.epw'. Data will be treated as typical (TMY)\n[openstudio.setFileExtension] <0> Path p, '/usr/local/lib/ruby/gems/2.2.0/bundler/gems/openstudio-standards-f0e9e7df79cf/data/weather/CAN_NS_CFB.Greenwood.713970_CWEC2016.ddy', has an unexpected file extension. Was expecting 'idf'.\n[openstudio.setFileExtension] <0> Path p, '/usr/local/lib/ruby/gems/2.2.0/bundler/gems/openstudio-standards-f0e9e7df79cf/data/weather/CAN_NS_CFB.Greenwood.713970_CWEC2016.ddy', has an unexpected file extension. Was expecting 'idf'.\n[openstudio.EpwFile] <0> Successive data points (2011-Jan-31 to 2008-Feb-01, ending on line 753) are greater than 1 day apart in EPW file '/usr/local/lib/ruby/gems/2.2.0/bundler/gems/openstudio-standards-f0e9e7df79cf/data/weather/CAN_NS_CFB.Greenwood.713970_CWEC2016.epw'. Data will be treated as typical (TMY)\n[openstudio.setFileExtension] <0> Path p, '/usr/local/lib/ruby/gems/2.2.0/bundler/gems/openstudio-standards-f0e9e7df79cf/data/weather/CAN_NS_CFB.Greenwood.713970_CWEC2016.ddy', has an unexpected file extension. Was expecting 'idf'.\n[openstudio.setFileExtension] <0> Path p, '/usr/local/lib/ruby/gems/2.2.0/bundler/gems/openstudio-standards-f0e9e7df79cf/data/weather/CAN_NS_CFB.Greenwood.713970_CWEC2016.ddy', has an unexpected file extension. Was expecting 'idf'.\n[openstudio.EpwFile] <0> Successive data points (2011-Jan-31 to 2008-Feb-01, ending on line 753) are greater than 1 day apart in EPW file '/usr/local/lib/ruby/gems/2.2.0/bundler/gems/openstudio-standards-f0e9e7df79cf/data/weather/CAN_NS_CFB.Greenwood.713970_CWEC2016.epw'. Data will be treated as typical (TMY)\n[openstudio.setFileExtension] <0> Path p, '/usr/local/lib/ruby/gems/2.2.0/bundler/gems/openstudio-standards-f0e9e7df79cf/data/weather/CAN_NS_CFB.Greenwood.713970_CWEC2016.ddy', has an unexpected file extension. Was expecting 'idf'.\n[openstudio.setFileExtension] <0> Path p, '/usr/local/lib/ruby/gems/2.2.0/bundler/gems/openstudio-standards-f0e9e7df79cf/data/weather/CAN_NS_CFB.Greenwood.713970_CWEC2016.ddy', has an unexpected file extension. Was expecting 'idf'.\n[openstudio.standards.Fan] <0> For Fan Constant Volume 1, there is no greater nominal HP.  Use the efficiency of the largest motor category.\n[openstudio.standards.Fan] <0> For Fan Constant Volume 2, there is no greater nominal HP.  Use the efficiency of the largest motor category.\n[openstudio.standards.Fan] <0> For Fan Constant Volume 3, there is no greater nominal HP.  Use the efficiency of the largest motor category.\n[openstudio.standards.Fan] <0> For Fan Constant Volume 4, there is no greater nominal HP.  Use the efficiency of the largest motor category.\n[openstudio.standards.Fan] <0> For Fan Constant Volume 5, there is no greater nominal HP.  Use the efficiency of the largest motor category.\n[utilities.idf.WorkspaceObject] <0> Object of type 'Schedule:Constant' and named 'Always Off Discrete', points to an object named OnOff 1 from field 1, but that object cannot be located.\n[utilities.idf.WorkspaceObject] <0> Object of type 'Schedule:Constant' and named 'Always On Continuous', points to an object named Fractional 1 from field 1, but that object cannot be located.\n",
            "step_errors" : [],
            "step_files" : [],
            "step_info" : [
               "Loaded space type map from model",
               "Finished adding geometry",
               "Started adding weather file for climate zone: NECB HDD Method.",
               "Started applying space types (loads)",
               "Space Function - undefined - had no ventilation specification, one has been created.",
               "Space Function - undefined - had no infiltration objects, one has been created.",
               "Space Function - undefined - set infiltration to 0.0 per ft^2 exterior surface area.",
               "Space Function - undefined - set infiltration schedule to Always On.",
               "Space Function Office enclosed <= 25 m2 had no people, one has been created.",
               "Space Function Office enclosed <= 25 m2 set occupancy to 4.646840148698885 people/1000 ft^2.",
               "Space Function Office enclosed <= 25 m2 had no lights, one has been created.",
               "Space Function Office enclosed <= 25 m2 set LPD to 0.929023 W/ft^2.",
               "Space Function Office enclosed <= 25 m2 had no electric equipment, one has been created.",
               "Space Function Office enclosed <= 25 m2 set electric EPD to 0.6970260223048327 W/ft^2.",
               "Space Function Office enclosed <= 25 m2 had no ventilation specification, one has been created.",
               "Space Function Office enclosed <= 25 m2 set ventilation per area to 0.083 cfm/ft^2.",
               "Space Function Office enclosed <= 25 m2 had no infiltration objects, one has been created.",
               "Space Function Office enclosed <= 25 m2 set infiltration to 0.0 per ft^2 exterior surface area.",
               "Space Function Office enclosed <= 25 m2 set occupancy schedule to NECB-A-Occupancy.",
               "Space Function Office enclosed <= 25 m2 set occupant activity schedule to NECB-Activity.",
               "Space Function Office enclosed <= 25 m2 set lighting schedule to OS:Schedule:Ruleset,\n  {cd0c1035-da42-4d41-9874-454053defe11}, !- Handle\n  NECB-A-Occupancy-NECB-A-Lighting-0.3-0.1-0.67-Light Ruleset, !- Name\n  {35ebbb43-0de3-4e48-bb7a-595362a3401d}, !- Schedule Type Limits Name\n  {0fbc77fd-87af-4b4a-8b84-5728eb6b9c4f}; !- Default Day Schedule Name\n\n.",
               "Space Function Office enclosed <= 25 m2 set electric equipment schedule to NECB-A-Electric-Equipment.",
               "Space Function Office enclosed <= 25 m2 set infiltration schedule to Always On.",
               "Space Function Office enclosed <= 25 m2 set heating setpoint schedule to NECB-A-Thermostat Setpoint-Heating.",
               "Space Function Office enclosed <= 25 m2 set cooling setpoint schedule to NECB-A-Thermostat Setpoint-Cooling.",
               "Finished applying space types (loads)",
               "For NECB2017, no exterior wall area was found, no infiltration will be added.",
               "Started applying constructions",
               "Finished applying constructions",
               "Started creating thermal zones",
               "Finished creating thermal zones",
               "This building has no exposed ceilings adjacent to spaces that are not attics or plenums.  No skylights will be added.",
               "Running simulation /mnt/openstudio/analysis_68c8b576-a9a1-447a-a2db-fd41b0db3a06/data_point_3d902901-8ca7-4ab6-86dd-9a3adac590c9/run/000_btap_create_necb_prototype_building/output/SmallOffice-NECB2017-CAN_NS_CFB.Greenwood.713970_CWEC2016.epw/SR0.",
               "Finished run.",
               "Started Adding HVAC",
               "Finished adding HVAC",
               "Started Adding Service Water Heating",
               "Adding service water loop",
               "Adding water heater",
               "Finished adding Service Water Heating",
               "Set sizing factors to 1.3 for heating and 1.3 for cooling.",
               "Running simulation /mnt/openstudio/analysis_68c8b576-a9a1-447a-a2db-fd41b0db3a06/data_point_3d902901-8ca7-4ab6-86dd-9a3adac590c9/run/000_btap_create_necb_prototype_building/output/SmallOffice-NECB2017-CAN_NS_CFB.Greenwood.713970_CWEC2016.epw/SR1.",
               "Finished run.",
               "Started applying prototype HVAC assumptions.",
               "For Fan Constant Volume 1: allowed_hp = 1.01HP; motor eff = 61.5%; total fan eff = 40% based on 605 cfm.",
               "For Fan Constant Volume 2: allowed_hp = 1.01HP; motor eff = 61.5%; total fan eff = 40% based on 997 cfm.",
               "For Fan Constant Volume 3: allowed_hp = 1.01HP; motor eff = 61.5%; total fan eff = 40% based on 1098 cfm.",
               "For Fan Constant Volume 4: allowed_hp = 1.01HP; motor eff = 61.5%; total fan eff = 40% based on 807 cfm.",
               "For Fan Constant Volume 5: allowed_hp = 1.01HP; motor eff = 61.5%; total fan eff = 40% based on 585 cfm.",
               "Sys_3_PSZ Sp-Core_ZN Sys-3 Flr-1 Sch-A HPlcmt-core ZN does not require an economizer because the total cooling capacity of 16720 Btu/hr is less than the minimum capacity of 68243 Btu/hr.",
               "Sys_3_PSZ Sp-Perimeter_ZN_1 Sys-3 Flr-1 Sch-A HPlcmt-south ZN does not require an economizer because the total cooling capacity of 21515 Btu/hr is less than the minimum capacity of 68243 Btu/hr.",
               "Sys_3_PSZ Sp-Perimeter_ZN_2 Sys-3 Flr-1 Sch-A HPlcmt-east ZN does not require an economizer because the total cooling capacity of 26584 Btu/hr is less than the minimum capacity of 68243 Btu/hr.",
               "Sys_3_PSZ Sp-Perimeter_ZN_3 Sys-3 Flr-1 Sch-A HPlcmt-north ZN does not require an economizer because the total cooling capacity of 16617 Btu/hr is less than the minimum capacity of 68243 Btu/hr.",
               "Sys_3_PSZ Sp-Perimeter_ZN_4 Sys-3 Flr-1 Sch-A HPlcmt-west ZN does not require an economizer because the total cooling capacity of 29274 Btu/hr is less than the minimum capacity of 68243 Btu/hr.",
               "Finished applying prototype HVAC assumptions.",
               "Started applying HVAC efficiency standards.",
               "For Sys_3_PSZ Sp-Core_ZN Sys-3 Flr-1 Sch-A HPlcmt-core ZN ERV, ERV power is calculated to be 95 W, based on a min OA flow of 134 cfm.",
               "For Sys_3_PSZ Sp-Core_ZN Sys-3 Flr-1 Sch-A HPlcmt-core ZN: No special economizer controls were modeled.",
               "For NECB2017 NECB HDD Method:  Sys_3_PSZ Sp-Core_ZN Sys-3 Flr-1 Sch-A HPlcmt-core ZN: DCV is not required for any system.",
               "For Sys_3_PSZ Sp-Core_ZN Sys-3 Flr-1 Sch-A HPlcmt-core ZN: Unoccupied fan shutoff not required because system fan HP of 0.59 HP is less than the minimum threshold of 0.75 HP.",
               "For Sys_3_PSZ Sp-Core_ZN Sys-3 Flr-1 Sch-A HPlcmt-core ZN: Setting motorized OA damper schedule to Always On Discrete.",
               "For Sys_3_PSZ Sp-Perimeter_ZN_1 Sys-3 Flr-1 Sch-A HPlcmt-south ZN ERV, ERV power is calculated to be 84 W, based on a min OA flow of 101 cfm.",
               "For Sys_3_PSZ Sp-Perimeter_ZN_1 Sys-3 Flr-1 Sch-A HPlcmt-south ZN: No special economizer controls were modeled.",
               "For NECB2017 NECB HDD Method:  Sys_3_PSZ Sp-Perimeter_ZN_1 Sys-3 Flr-1 Sch-A HPlcmt-south ZN: DCV is not required for any system.",
               "For Sys_3_PSZ Sp-Perimeter_ZN_1 Sys-3 Flr-1 Sch-A HPlcmt-south ZN: Annual occupied hours = 2860 hr/yr, assuming a 0.15 occupancy threshold.  This schedule will be used as the HVAC operation schedule.",
               "For Sys_3_PSZ Sp-Perimeter_ZN_1 Sys-3 Flr-1 Sch-A HPlcmt-south ZN: Setting motorized OA damper schedule to Sys_3_PSZ Sp-Perimeter_ZN_1 Sys-3 Flr-1 Sch-A HPlcmt-south ZN Occ Sch.",
               "For Sys_3_PSZ Sp-Perimeter_ZN_2 Sys-3 Flr-1 Sch-A HPlcmt-east ZN ERV, ERV power is calculated to be 70 W, based on a min OA flow of 60 cfm.",
               "For Sys_3_PSZ Sp-Perimeter_ZN_2 Sys-3 Flr-1 Sch-A HPlcmt-east ZN: No special economizer controls were modeled.",
               "For NECB2017 NECB HDD Method:  Sys_3_PSZ Sp-Perimeter_ZN_2 Sys-3 Flr-1 Sch-A HPlcmt-east ZN: DCV is not required for any system.",
               "For Sys_3_PSZ Sp-Perimeter_ZN_2 Sys-3 Flr-1 Sch-A HPlcmt-east ZN: Annual occupied hours = 2860 hr/yr, assuming a 0.15 occupancy threshold.  This schedule will be used as the HVAC operation schedule.",
               "For Sys_3_PSZ Sp-Perimeter_ZN_2 Sys-3 Flr-1 Sch-A HPlcmt-east ZN: Setting motorized OA damper schedule to Sys_3_PSZ Sp-Perimeter_ZN_2 Sys-3 Flr-1 Sch-A HPlcmt-east ZN Occ Sch.",
               "For Sys_3_PSZ Sp-Perimeter_ZN_3 Sys-3 Flr-1 Sch-A HPlcmt-north ZN ERV, ERV power is calculated to be 84 W, based on a min OA flow of 101 cfm.",
               "For Sys_3_PSZ Sp-Perimeter_ZN_3 Sys-3 Flr-1 Sch-A HPlcmt-north ZN: No special economizer controls were modeled.",
               "For NECB2017 NECB HDD Method:  Sys_3_PSZ Sp-Perimeter_ZN_3 Sys-3 Flr-1 Sch-A HPlcmt-north ZN: DCV is not required for any system.",
               "For Sys_3_PSZ Sp-Perimeter_ZN_3 Sys-3 Flr-1 Sch-A HPlcmt-north ZN: Unoccupied fan shutoff not required because system fan HP of 0.61 HP is less than the minimum threshold of 0.75 HP.",
               "For Sys_3_PSZ Sp-Perimeter_ZN_3 Sys-3 Flr-1 Sch-A HPlcmt-north ZN: Setting motorized OA damper schedule to Always On Discrete.",
               "For Sys_3_PSZ Sp-Perimeter_ZN_4 Sys-3 Flr-1 Sch-A HPlcmt-west ZN ERV, ERV power is calculated to be 70 W, based on a min OA flow of 60 cfm.",
               "For Sys_3_PSZ Sp-Perimeter_ZN_4 Sys-3 Flr-1 Sch-A HPlcmt-west ZN: No special economizer controls were modeled.",
               "For NECB2017 NECB HDD Method:  Sys_3_PSZ Sp-Perimeter_ZN_4 Sys-3 Flr-1 Sch-A HPlcmt-west ZN: DCV is not required for any system.",
               "For Sys_3_PSZ Sp-Perimeter_ZN_4 Sys-3 Flr-1 Sch-A HPlcmt-west ZN: Annual occupied hours = 2860 hr/yr, assuming a 0.15 occupancy threshold.  This schedule will be used as the HVAC operation schedule.",
               "For Sys_3_PSZ Sp-Perimeter_ZN_4 Sys-3 Flr-1 Sch-A HPlcmt-west ZN: Setting motorized OA damper schedule to Sys_3_PSZ Sp-Perimeter_ZN_4 Sys-3 Flr-1 Sch-A HPlcmt-west ZN Occ Sch.",
               "For Fan Constant Volume 1: motor nameplate = 0.37693478832130783HP, motor eff = 61.5%.",
               "For Fan Constant Volume 2: motor nameplate = 0.6211898902167062HP, motor eff = 61.5%.",
               "For Fan Constant Volume 3: motor nameplate = 0.6840559690508269HP, motor eff = 61.5%.",
               "For Fan Constant Volume 4: motor nameplate = 0.5027539238606883HP, motor eff = 61.5%.",
               "For Fan Constant Volume 5: motor nameplate = 0.3641543684622408HP, motor eff = 61.5%.",
               "For Service Water Loop Pump: brake hp = 0.0HP, motor nameplate = 0.1HP, motor eff = 70.0%.",
               "For Pump Variable Speed 1: brake hp = 0.11HP, motor nameplate = 1.0HP, motor eff = 85.5%.",
               "For NECB2017: Coil Cooling DX Single Speed 1: AirCooled All Other Single Package Capacity = 17kBtu/hr; SEER = 14.0",
               "For NECB2017: Coil Cooling DX Single Speed 2: AirCooled All Other Single Package Capacity = 27kBtu/hr; SEER = 14.0",
               "For NECB2017: Coil Cooling DX Single Speed 3: AirCooled All Other Single Package Capacity = 29kBtu/hr; SEER = 14.0",
               "For NECB2017: Coil Cooling DX Single Speed 4: AirCooled All Other Single Package Capacity = 22kBtu/hr; SEER = 14.0",
               "For NECB2017: Coil Cooling DX Single Speed 5: AirCooled All Other Single Package Capacity = 17kBtu/hr; SEER = 14.0",
               "For NECB2017: Primary Boiler: Gas Hot Water Capacity = 84kBtu/hr; AFUE = 0.85",
               "For NECB2017: Secondary Boiler: Gas Hot Water Capacity = 0kBtu/hr; AFUE = 0.85",
               "For NECB2017: 13gal NaturalGas Water Heater - 9kBtu/hr 0.82 Therm Eff; thermal efficiency = 0.82, skin-loss UA = 1Btu/hr",
               "For Sys_3_PSZ Sp-Perimeter_ZN_3 Sys-3 Flr-1 Sch-A HPlcmt-north ZN ERV: Set sensible and latent effectiveness to 50%.",
               "For Sys_3_PSZ Sp-Perimeter_ZN_4 Sys-3 Flr-1 Sch-A HPlcmt-west ZN ERV: Set sensible and latent effectiveness to 50%.",
               "For Sys_3_PSZ Sp-Perimeter_ZN_1 Sys-3 Flr-1 Sch-A HPlcmt-south ZN ERV: Set sensible and latent effectiveness to 50%.",
               "For Sys_3_PSZ Sp-Perimeter_ZN_2 Sys-3 Flr-1 Sch-A HPlcmt-east ZN ERV: Set sensible and latent effectiveness to 50%.",
               "For Sys_3_PSZ Sp-Core_ZN Sys-3 Flr-1 Sch-A HPlcmt-core ZN ERV: Set sensible and latent effectiveness to 50%.",
               "For NECB2017: Coil Heating Gas 1: Capacity = 33kBtu/hr; AFUE = 0.924",
               "For NECB2017: Coil Heating Gas 2: Capacity = 45kBtu/hr; AFUE = 0.924",
               "For NECB2017: Coil Heating Gas 3: Capacity = 50kBtu/hr; AFUE = 0.924",
               "For NECB2017: Coil Heating Gas 4: Capacity = 41kBtu/hr; AFUE = 0.924",
               "For NECB2017: Coil Heating Gas 5: Capacity = 34kBtu/hr; AFUE = 0.924",
               "Finished applying HVAC efficiency standards.",
               "Started adding daylighting controls.",
               "For Attic, daylighting control not applicable because no exterior fenestration is present.",
               "For Core_ZN, daylighting control not applicable because no exterior fenestration is present.",
               "Finished adding daylighting controls.",
               "Running simulation /mnt/openstudio/analysis_68c8b576-a9a1-447a-a2db-fd41b0db3a06/data_point_3d902901-8ca7-4ab6-86dd-9a3adac590c9/run/000_btap_create_necb_prototype_building/output/SmallOffice-NECB2017-CAN_NS_CFB.Greenwood.713970_CWEC2016.epw/SR2.",
               "Finished run.",
               "Total Time = 69sec."
            ],
            "step_result" : "Success",
            "step_values" : [
               {
                  "name" : "building_type",
                  "value" : "SmallOffice"
               },
               {
                  "name" : "template",
                  "value" : "NECB2017"
               },
               {
                  "name" : "epw_file",
                  "value" : "CAN_NS_CFB.Greenwood.713970_CWEC2016.epw"
               },
               {
                  "name" : "new_auto_zoner",
                  "value" : true
               }
            ],
            "step_warnings" : [
               "[openstudio.EpwFile] Successive data points (2011-Jan-31 to 2008-Feb-01, ending on line 753) are greater than 1 day apart in EPW file '/usr/local/lib/ruby/gems/2.2.0/bundler/gems/openstudio-standards-f0e9e7df79cf/data/weather/CAN_NS_CFB.Greenwood.713970_CWEC2016.epw'. Data will be treated as typical (TMY)",
               "[openstudio.EpwFile] Successive data points (2011-Jan-31 to 2008-Feb-01, ending on line 753) are greater than 1 day apart in EPW file '/usr/local/lib/ruby/gems/2.2.0/bundler/gems/openstudio-standards-f0e9e7df79cf/data/weather/CAN_NS_CFB.Greenwood.713970_CWEC2016.epw'. Data will be treated as typical (TMY)",
               "[openstudio.weather.Model] Could not find ground temperatures; will use generic temperatures, which will skew results.",
               "[openstudio.EpwFile] Successive data points (2011-Jan-31 to 2008-Feb-01, ending on line 753) are greater than 1 day apart in EPW file '/usr/local/lib/ruby/gems/2.2.0/bundler/gems/openstudio-standards-f0e9e7df79cf/data/weather/CAN_NS_CFB.Greenwood.713970_CWEC2016.epw'. Data will be treated as typical (TMY)",
               "[openstudio.EpwFile] Successive data points (2011-Jan-31 to 2008-Feb-01, ending on line 753) are greater than 1 day apart in EPW file '/usr/local/lib/ruby/gems/2.2.0/bundler/gems/openstudio-standards-f0e9e7df79cf/data/weather/CAN_NS_CFB.Greenwood.713970_CWEC2016.epw'. Data will be treated as typical (TMY)",
               "[openstudio.EpwFile] Successive data points (2011-Jan-31 to 2008-Feb-01, ending on line 753) are greater than 1 day apart in EPW file '/usr/local/lib/ruby/gems/2.2.0/bundler/gems/openstudio-standards-f0e9e7df79cf/data/weather/CAN_NS_CFB.Greenwood.713970_CWEC2016.epw'. Data will be treated as typical (TMY)",
               "[openstudio.EpwFile] Successive data points (2011-Jan-31 to 2008-Feb-01, ending on line 753) are greater than 1 day apart in EPW file '/usr/local/lib/ruby/gems/2.2.0/bundler/gems/openstudio-standards-f0e9e7df79cf/data/weather/CAN_NS_CFB.Greenwood.713970_CWEC2016.epw'. Data will be treated as typical (TMY)",
               "[openstudio.standards.Fan] For Fan Constant Volume 1, there is no greater nominal HP.  Use the efficiency of the largest motor category.",
               "[openstudio.standards.Fan] For Fan Constant Volume 2, there is no greater nominal HP.  Use the efficiency of the largest motor category.",
               "[openstudio.standards.Fan] For Fan Constant Volume 3, there is no greater nominal HP.  Use the efficiency of the largest motor category.",
               "[openstudio.standards.Fan] For Fan Constant Volume 4, there is no greater nominal HP.  Use the efficiency of the largest motor category.",
               "[openstudio.standards.Fan] For Fan Constant Volume 5, there is no greater nominal HP.  Use the efficiency of the largest motor category.",
               "[openstudio.EpwFile] Successive data points (2011-Jan-31 to 2008-Feb-01, ending on line 753) are greater than 1 day apart in EPW file '/usr/local/lib/ruby/gems/2.2.0/bundler/gems/openstudio-standards-f0e9e7df79cf/data/weather/CAN_NS_CFB.Greenwood.713970_CWEC2016.epw'. Data will be treated as typical (TMY)",
               "[openstudio.EpwFile] Successive data points (2011-Jan-31 to 2008-Feb-01, ending on line 753) are greater than 1 day apart in EPW file '/usr/local/lib/ruby/gems/2.2.0/bundler/gems/openstudio-standards-f0e9e7df79cf/data/weather/CAN_NS_CFB.Greenwood.713970_CWEC2016.epw'. Data will be treated as typical (TMY)",
               "[openstudio.EpwFile] Successive data points (2011-Jan-31 to 2008-Feb-01, ending on line 753) are greater than 1 day apart in EPW file '/usr/local/lib/ruby/gems/2.2.0/bundler/gems/openstudio-standards-f0e9e7df79cf/data/weather/CAN_NS_CFB.Greenwood.713970_CWEC2016.epw'. Data will be treated as typical (TMY)",
               "[openstudio.EpwFile] Successive data points (2011-Jan-31 to 2008-Feb-01, ending on line 753) are greater than 1 day apart in EPW file '/usr/local/lib/ruby/gems/2.2.0/bundler/gems/openstudio-standards-f0e9e7df79cf/data/weather/CAN_NS_CFB.Greenwood.713970_CWEC2016.epw'. Data will be treated as typical (TMY)",
               "[openstudio.EpwFile] Successive data points (2011-Jan-31 to 2008-Feb-01, ending on line 753) are greater than 1 day apart in EPW file '/usr/local/lib/ruby/gems/2.2.0/bundler/gems/openstudio-standards-f0e9e7df79cf/data/weather/CAN_NS_CFB.Greenwood.713970_CWEC2016.epw'. Data will be treated as typical (TMY)",
               "[openstudio.standards.Fan] For Fan Constant Volume 1, there is no greater nominal HP.  Use the efficiency of the largest motor category.",
               "[openstudio.standards.Fan] For Fan Constant Volume 2, there is no greater nominal HP.  Use the efficiency of the largest motor category.",
               "[openstudio.standards.Fan] For Fan Constant Volume 3, there is no greater nominal HP.  Use the efficiency of the largest motor category.",
               "[openstudio.standards.Fan] For Fan Constant Volume 4, there is no greater nominal HP.  Use the efficiency of the largest motor category.",
               "[openstudio.standards.Fan] For Fan Constant Volume 5, there is no greater nominal HP.  Use the efficiency of the largest motor category."
            ]
         }
      },
      {
         "arguments" : {
            "clg_cop" : 0,
            "heat_pump_type" : "CCASHP",
            "htg_cop" : 0,
            "zone_clg_eqpt" : "Keep Existing",
            "zone_htg_eqpt" : "Electric Baseboard",
            "zone_term_reheat_eqpt" : "Electric"
         },
         "description" : "Scan all air systems amd delete existing heating and cooling coils. Then add DX heating and cooling coils and supplemental heating electric coils for an air-source heat pump. The zonal heating units can either be deleted, left as is, or replaced with electric baseboards. Zonal cooling units can either be deleted or left as is in the model.",
         "measure_dir_name" : "BTAPHeatPumpAirSystem",
         "name" : "set_heat_pump_air_system",
         "result" : {
            "completed_at" : "20190517T152306Z",
            "measure_class_name" : "SetHeatPumpAirSystem",
            "measure_display_name" : "SetHeatPumpAirSystem",
            "measure_name" : "set_heat_pump_air_system",
            "measure_taxonomy" : "HVAC.Heating",
            "measure_type" : "ModelMeasure",
            "measure_uid" : "95d36ab6-98d7-4fcb-b265-c71e7cf2e28e",
            "measure_version_id" : "05e4ea59-ded6-4b3c-8ddd-f70e82d7aa91",
            "measure_version_modified" : "20190517T150558Z",
            "measure_xml_checksum" : "470FC630",
            "started_at" : "20190517T152257Z",
            "stderr" : "",
            "stdout" : "[utilities.idf.WorkspaceObject] <0> Object of type 'Schedule:Constant' and named 'Always On Continuous', points to an object named Fractional 1 from field 1, but that object cannot be located.\n[openstudio.model.Model] <0> The run completed but had the following severe errors: Orphaned ZoneHVAC object found.  This was object never referenced in the input, and was not used.   -- Object type: ZoneHVAC:Baseboard:Convective:Water   -- Object name: Zone HVAC Baseboard Convective Water 1\\nOrphaned ZoneHVAC object found.  This was object never referenced in the input, and was not used.   -- Object type: ZoneHVAC:Baseboard:Convective:Water   -- Object name: Zone HVAC Baseboard Convective Water 2\\nOrphaned ZoneHVAC object found.  This was object never referenced in the input, and was not used.   -- Object type: ZoneHVAC:Baseboard:Convective:Water   -- Object name: Zone HVAC Baseboard Convective Water 3\\nOrphaned ZoneHVAC object found.  This was object never referenced in the input, and was not used.   -- Object type: ZoneHVAC:Baseboard:Convective:Water   -- Object name: Zone HVAC Baseboard Convective Water 4\\nOrphaned ZoneHVAC object found.  This was object never referenced in the input, and was not used.   -- Object type: ZoneHVAC:Baseboard:Convective:Water   -- Object name: Zone HVAC Baseboard Convective Water 5\n",
            "step_errors" : [],
            "step_files" : [],
            "step_info" : [],
            "step_result" : "Success",
            "step_values" : [
               {
                  "name" : "heat_pump_type",
                  "value" : "CCASHP"
               },
               {
                  "name" : "zone_htg_eqpt",
                  "value" : "Electric Baseboard"
               },
               {
                  "name" : "zone_clg_eqpt",
                  "value" : "Keep Existing"
               },
               {
                  "name" : "zone_term_reheat_eqpt",
                  "value" : "Electric"
               },
               {
                  "name" : "htg_cop",
                  "value" : 0
               },
               {
                  "name" : "clg_cop",
                  "value" : 0
               }
            ],
            "step_warnings" : []
         }
      },
      {
         "arguments" : {},
         "description" : "BTAPUtilityTariffs",
         "measure_dir_name" : "btap_utility_tariffs",
         "name" : "btap_utility_tariffs_model_setup",
         "result" : {
            "completed_at" : "20190517T152308Z",
            "measure_class_name" : "BTAPUtilityTariffsModelSetup",
            "measure_display_name" : "BTAPUtilityTariffsModelSetup",
            "measure_name" : "btap_utility_tariffs_model_setup",
            "measure_taxonomy" : "Economics.Life Cycle Cost Analysis",
            "measure_type" : "EnergyPlusMeasure",
            "measure_uid" : "34c820cf-b55d-4bdf-b654-48e5bd9beef8",
            "measure_version_id" : "20dd95fb-d5b0-4916-ace4-5633a6208092",
            "measure_version_modified" : "20181219T170133Z",
            "measure_xml_checksum" : "D1E2AA62",
            "started_at" : "20190517T152307Z",
            "stderr" : "",
            "stdout" : "[OpenStudio.Measure] <0> OSArgumentVector is deprecated, use OpenStudio::Measure::OSArgumentVector instead.\n",
            "step_errors" : [],
            "step_files" : [],
            "step_info" : [
               "Found Electricity tariff database match for weather_station :CFB Greenwood_NS_CAN\n Row Information is Electricity,kWh,NovaScotiaPower,CFB Greenwood_NS_CAN,Nova Scotia,0,200,0.11841,201,0.08562,202,0.08562,203,0.08562,0.08562,50,0,51,10.497,52,10.497,53,10.497,10.497\n",
               "Found Gas tariff database match for weather_station :CFB Greenwood_NS_CAN\n Row Information is Gas,MJ,HeritageGas,CFB Greenwood_NS_CAN,Nova Scotia,21.87,1,0.0164,2,0.0164,3,0.0164,4,0.0164,0.0164,1,0,2,0,3,0,4,0,0\n",
               "Found FuelOil#2 tariff database match for weather_station :CFB Greenwood_NS_CAN\n Row Information is FuelOil#2,MJ,NoneOil,CFB Greenwood_NS_CAN,Nova Scotia,0,1,0,2,0,3,0,4,0,0,1,0,2,0,3,0,4,0,0\n",
               "added a tariffs \nUtilityCost:Tariff,\n  NovaScotiaPower,                              !- Name\n  Electricity:Facility,         !- Output Meter Name\n  kWh ,                         !- Conversion Factor Choice\n  ,                                       !- Energy Conversion Factor\n  ,                                       !- Demand Conversion Factor\n  ,                                       !- Time of Use Period Schedule Name\n  ,                                       !- Season Schedule Name\n  ,                                       !- Month Schedule Name\n  QuarterHour,                            !- Demand Window Length\n  ;                      !- Monthly Charge or Variable Name\n\nUtilityCost:Charge:Block,\n  ElectricityBlocksEnergyCharges,           ! Name\n  NovaScotiaPower,                  ! Tariff Name\n  TotalEnergy,                            ! Source Variable\n  Annual,                                 ! Season\n  EnergyCharges,                          ! Category Variable Name\n  ,                                       ! Remaining Into Variable\n  ,                                       ! Block Size Multiplier Value or Variable Name\n  200,            ! Block Size 1 Value or Variable Name\n  0.11841,             ! Block 1 Cost per Unit Value or Variable Name\n  201,            ! Block Size 2 Value or Variable Name\n  0.08562,             ! Block 2 Cost per Unit Value or Variable Name\n  202,            ! Block Size 3 Value or Variable Name\n  0.08562,             ! Block 3 Cost per Unit Value or Variable Name\n  203,            ! Block Size 4 Value or Variable Name\n  0.08562,             ! Block 4 Cost per Unit Value or Variable Name\n  remaining,                              ! Block Size 5 Value or Variable Name\n  0.08562;             ! Block 5 Cost per Unit Value or Variable Name\n\nUtilityCost:Charge:Block,\n  ElectricityBlocksDemandCharges,           ! Name\n  NovaScotiaPower,                  ! Tariff Name\n  TotalDemand,                                 ! Source Variable\n  Annual,                                      ! Season\n  DemandCharges,                               ! Category Variable Name\n  ,                                            ! Remaining Into Variable\n  ,                                            ! Block Size Multiplier Value or Variable Name\n 50,          ! Block Size 1 Value or Variable Name\n 0,           ! Block 1 Cost per Unit Value or Variable Name\n 51,          ! Block Size 2 Value or Variable Name\n 10.497,           ! Block 2 Cost per Unit Value or Variable Name\n 52,          ! Block Size 3 Value or Variable Name\n 10.497,           ! Block 3 Cost per Unit Value or Variable Name\n 53,          ! Block Size 4 Value or Variable Name\n 10.497,           ! Block 4 Cost per Unit Value or Variable Name\n remaining,                                   ! Block Size 5 Value or Variable Name\n 10.497;           ! Block 5 Cost per Unit Value or Variable Name\n      \nUtilityCost:Tariff,\n  HeritageGas,                              !- Name\n  Gas:Facility,         !- Output Meter Name\n  MJ ,                         !- Conversion Factor Choice\n  ,                                       !- Energy Conversion Factor\n  ,                                       !- Demand Conversion Factor\n  ,                                       !- Time of Use Period Schedule Name\n  ,                                       !- Season Schedule Name\n  ,                                       !- Month Schedule Name\n  QuarterHour,                            !- Demand Window Length\n  ;                      !- Monthly Charge or Variable Name\n\nUtilityCost:Charge:Block,\n  GasBlocksEnergyCharges,           ! Name\n  HeritageGas,                  ! Tariff Name\n  TotalEnergy,                            ! Source Variable\n  Annual,                                 ! Season\n  EnergyCharges,                          ! Category Variable Name\n  ,                                       ! Remaining Into Variable\n  ,                                       ! Block Size Multiplier Value or Variable Name\n  1,            ! Block Size 1 Value or Variable Name\n  0.0164,             ! Block 1 Cost per Unit Value or Variable Name\n  2,            ! Block Size 2 Value or Variable Name\n  0.0164,             ! Block 2 Cost per Unit Value or Variable Name\n  3,            ! Block Size 3 Value or Variable Name\n  0.0164,             ! Block 3 Cost per Unit Value or Variable Name\n  4,            ! Block Size 4 Value or Variable Name\n  0.0164,             ! Block 4 Cost per Unit Value or Variable Name\n  remaining,                              ! Block Size 5 Value or Variable Name\n  0.0164;             ! Block 5 Cost per Unit Value or Variable Name\n\nUtilityCost:Charge:Block,\n  GasBlocksDemandCharges,           ! Name\n  HeritageGas,                  ! Tariff Name\n  TotalDemand,                                 ! Source Variable\n  Annual,                                      ! Season\n  DemandCharges,                               ! Category Variable Name\n  ,                                            ! Remaining Into Variable\n  ,                                            ! Block Size Multiplier Value or Variable Name\n 1,          ! Block Size 1 Value or Variable Name\n 0,           ! Block 1 Cost per Unit Value or Variable Name\n 2,          ! Block Size 2 Value or Variable Name\n 0,           ! Block 2 Cost per Unit Value or Variable Name\n 3,          ! Block Size 3 Value or Variable Name\n 0,           ! Block 3 Cost per Unit Value or Variable Name\n 4,          ! Block Size 4 Value or Variable Name\n 0,           ! Block 4 Cost per Unit Value or Variable Name\n remaining,                                   ! Block Size 5 Value or Variable Name\n 0;           ! Block 5 Cost per Unit Value or Variable Name\n      \nUtilityCost:Tariff,\n  NoneOil,                              !- Name\n  FuelOil#2:Facility,         !- Output Meter Name\n  MJ ,                         !- Conversion Factor Choice\n  ,                                       !- Energy Conversion Factor\n  ,                                       !- Demand Conversion Factor\n  ,                                       !- Time of Use Period Schedule Name\n  ,                                       !- Season Schedule Name\n  ,                                       !- Month Schedule Name\n  QuarterHour,                            !- Demand Window Length\n  ;                      !- Monthly Charge or Variable Name\n\nUtilityCost:Charge:Block,\n  FuelOil#2BlocksEnergyCharges,           ! Name\n  NoneOil,                  ! Tariff Name\n  TotalEnergy,                            ! Source Variable\n  Annual,                                 ! Season\n  EnergyCharges,                          ! Category Variable Name\n  ,                                       ! Remaining Into Variable\n  ,                                       ! Block Size Multiplier Value or Variable Name\n  1,            ! Block Size 1 Value or Variable Name\n  0,             ! Block 1 Cost per Unit Value or Variable Name\n  2,            ! Block Size 2 Value or Variable Name\n  0,             ! Block 2 Cost per Unit Value or Variable Name\n  3,            ! Block Size 3 Value or Variable Name\n  0,             ! Block 3 Cost per Unit Value or Variable Name\n  4,            ! Block Size 4 Value or Variable Name\n  0,             ! Block 4 Cost per Unit Value or Variable Name\n  remaining,                              ! Block Size 5 Value or Variable Name\n  0;             ! Block 5 Cost per Unit Value or Variable Name\n\nUtilityCost:Charge:Block,\n  FuelOil#2BlocksDemandCharges,           ! Name\n  NoneOil,                  ! Tariff Name\n  TotalDemand,                                 ! Source Variable\n  Annual,                                      ! Season\n  DemandCharges,                               ! Category Variable Name\n  ,                                            ! Remaining Into Variable\n  ,                                            ! Block Size Multiplier Value or Variable Name\n 1,          ! Block Size 1 Value or Variable Name\n 0,           ! Block 1 Cost per Unit Value or Variable Name\n 2,          ! Block Size 2 Value or Variable Name\n 0,           ! Block 2 Cost per Unit Value or Variable Name\n 3,          ! Block Size 3 Value or Variable Name\n 0,           ! Block 3 Cost per Unit Value or Variable Name\n 4,          ! Block Size 4 Value or Variable Name\n 0,           ! Block 4 Cost per Unit Value or Variable Name\n remaining,                                   ! Block Size 5 Value or Variable Name\n 0;           ! Block 5 Cost per Unit Value or Variable Name\n      ",
               "set the simulation timestep to 15 min to match the demand window of the tariffs",
               "removed existing lifecycle parameters named Life Cycle Cost Parameters",
               "added lifecycle cost parameters named FEMP LifeCycle Cost Parameters",
               "removed existing fuel escalation rates named ",
               "removed existing fuel escalation rates named ",
               "removed existing fuel escalation rates named ",
               "removed existing fuel escalation rates named ",
               "removed existing fuel escalation rates named ",
               "added fuel escalation rates named ",
               "added fuel escalation rates named ",
               "added fuel escalation rates named ",
               "added fuel escalation rates named ",
               "added fuel escalation rates named "
            ],
            "step_result" : "Success",
            "step_values" : [],
            "step_warnings" : []
         }
      },
      {
         "arguments" : {
            "generate_hourly_report" : "false",
            "output_diet" : false
         },
         "description" : "This measure creates BTAP result values used for NRCan analyses.",
         "measure_dir_name" : "btap_results",
         "name" : "btap_results",
         "result" : {
            "completed_at" : "20190517T152405Z",
            "measure_class_name" : "BTAPResults",
            "measure_display_name" : "BTAP Results",
            "measure_name" : "btap_results",
            "measure_taxonomy" : "Reporting.QAQC",
            "measure_type" : "ReportingMeasure",
            "measure_uid" : "bf37e1c6-de70-457b-a3ac-21aa57b7bc58",
            "measure_version_id" : "61896a0d-9067-467e-b478-421a39c02254",
            "measure_version_modified" : "20190401T145207Z",
            "measure_xml_checksum" : "15BF4E57",
            "started_at" : "20190517T152352Z",
            "stderr" : "",
            "stdout" : "[openstudio.EpwFile] <0> Successive data points (2011-Jan-31 to 2008-Feb-01, ending on line 753) are greater than 1 day apart in EPW file '/usr/local/lib/ruby/gems/2.2.0/bundler/gems/openstudio-standards-f0e9e7df79cf/data/weather/CAN_NS_CFB.Greenwood.713970_CWEC2016.epw'. Data will be treated as typical (TMY)\n[openstudio.setFileExtension] <0> Path p, '/usr/local/lib/ruby/gems/2.2.0/bundler/gems/openstudio-standards-f0e9e7df79cf/data/weather/CAN_NS_CFB.Greenwood.713970_CWEC2016.ddy', has an unexpected file extension. Was expecting 'idf'.\n[openstudio.setFileExtension] <0> Path p, '/usr/local/lib/ruby/gems/2.2.0/bundler/gems/openstudio-standards-f0e9e7df79cf/data/weather/CAN_NS_CFB.Greenwood.713970_CWEC2016.ddy', has an unexpected file extension. Was expecting 'idf'.\n[openstudio.EpwFile] <0> Successive data points (2011-Jan-31 to 2008-Feb-01, ending on line 753) are greater than 1 day apart in EPW file '/usr/local/lib/ruby/gems/2.2.0/bundler/gems/openstudio-standards-f0e9e7df79cf/data/weather/CAN_NS_CFB.Greenwood.713970_CWEC2016.epw'. Data will be treated as typical (TMY)\n[openstudio.setFileExtension] <0> Path p, '/usr/local/lib/ruby/gems/2.2.0/bundler/gems/openstudio-standards-f0e9e7df79cf/data/weather/CAN_NS_CFB.Greenwood.713970_CWEC2016.ddy', has an unexpected file extension. Was expecting 'idf'.\n[openstudio.setFileExtension] <0> Path p, '/usr/local/lib/ruby/gems/2.2.0/bundler/gems/openstudio-standards-f0e9e7df79cf/data/weather/CAN_NS_CFB.Greenwood.713970_CWEC2016.ddy', has an unexpected file extension. Was expecting 'idf'.\n",
            "step_errors" : [],
            "step_files" : [
               "/mnt/openstudio/analysis_68c8b576-a9a1-447a-a2db-fd41b0db3a06/data_point_3d902901-8ca7-4ab6-86dd-9a3adac590c9/run/003_btap_results/qaqc.json",
               "/mnt/openstudio/analysis_68c8b576-a9a1-447a-a2db-fd41b0db3a06/data_point_3d902901-8ca7-4ab6-86dd-9a3adac590c9/run/003_btap_results/cost_results.json"
            ],
            "step_final_condition" : "Saved BTAP results to runner.",
            "step_info" : [],
            "step_initial_condition" : "Gathering data from EnergyPlus SQL file and OSM model.",
            "step_result" : "Success",
            "step_values" : [
               {
                  "name" : "result_costing",
                  "value" : "{\n  \"rs_means_city\": \"BRIDGEWATER\",\n  \"rs_means_prov\": \"NOVA SCOTIA\",\n  \"envelope\": {\n    \"exterior_wall_cost\": 7227.5,\n    \"exterior_wall_area_m2\": 171.39999999999998,\n    \"exterior_wall_cost_per_m2\": 42.17,\n    \"exterior_roof_cost\": 47493.740000000005,\n    \"exterior_roof_area_m2\": 598.8,\n    \"exterior_roof_cost_per_m2\": 79.31,\n    \"exterior_floor_cost\": 1993.3600000000001,\n    \"exterior_floor_area_m2\": 56.8,\n    \"exterior_floor_cost_per_m2\": 35.09,\n    \"exterior_fixed_window_cost\": 6915.4400000000005,\n    \"exterior_fixed_window_area_m2\": 110.0,\n    \"exterior_fixed_window_cost_per_m2\": 62.87,\n    \"exterior_operable_window_cost\": 0.0,\n    \"exterior_operable_window_area_m2\": 0.0,\n    \"exterior_operable_window_cost_per_m2\": 0.0,\n    \"exterior_skylight_cost\": 0.0,\n    \"exterior_skylight_area_m2\": 0.0,\n    \"exterior_skylight_cost_per_m2\": 0.0,\n    \"exterior_tubular_daylight_diffuser_cost\": 0.0,\n    \"exterior_tubular_daylight_diffuser_area_m2\": 0.0,\n    \"exterior_tubular_daylight_diffuser_cost_per_m2\": 0.0,\n    \"exterior_tubular_daylight_dome_cost\": 0.0,\n    \"exterior_tubular_daylight_dome_area_m2\": 0.0,\n    \"exterior_tubular_daylight_dome_cost_per_m2\": 0.0,\n    \"exterior_door_cost\": 0.0,\n    \"exterior_door_area_m2\": 0.0,\n    \"exterior_door_cost_per_m2\": 0.0,\n    \"exterior_glass_door_cost\": 0.0,\n    \"exterior_glass_door_area_m2\": 0.0,\n    \"exterior_glass_door_cost_per_m2\": 0.0,\n    \"exterior_overhead_door_cost\": 0.0,\n    \"exterior_overhead_door_area_m2\": 0.0,\n    \"exterior_overhead_door_cost_per_m2\": 0.0,\n    \"ground_contact_wall_cost\": 0.0,\n    \"ground_contact_wall_area_m2\": 0.0,\n    \"ground_contact_wall_cost_per_m2\": 0.0,\n    \"ground_contact_roof_cost\": 0.0,\n    \"ground_contact_roof_area_m2\": 0.0,\n    \"ground_contact_roof_cost_per_m2\": 0.0,\n    \"ground_contact_floor_cost\": 31671.760000000002,\n    \"ground_contact_floor_area_m2\": 511.3,\n    \"ground_contact_floor_cost_per_m2\": 61.94,\n    \"construction_costs\": [\n      {\n        \"name\": \"BTAP-ExteriorRoof-IEAD-4\",\n        \"conductance\": 0.15599999999999992,\n        \"area\": 598.7616811798496,\n        \"cost\": 47493.72537497362,\n        \"cost_per_area\": 79.31991452991456,\n        \"note\": \"Surf #1: OK / 2: OK / 3: OK / 4: OK\"\n      },\n      {\n        \"name\": \"BTAP-ExteriorFloor-SteelFramed-1\",\n        \"conductance\": 0.183,\n        \"area\": 56.8199999999999,\n        \"cost\": 1993.3675226968335,\n        \"cost_per_area\": 35.08214577079966,\n        \"note\": \"Surf #1: OK / 2: OK / 3: OK / 4: OK\"\n      },\n      {\n        \"name\": \"BTAP-GroundContactFloor-Unheated-1\",\n        \"conductance\": 0.7570000000000018,\n        \"area\": 511.1574,\n        \"cost\": 31671.75959535703,\n        \"cost_per_area\": 61.960874664745205,\n        \"note\": \"Surf #1: OK / 1: OK / 1: OK / 1: OK / 1: OK\"\n      },\n      {\n        \"name\": \"BTAP-ExteriorWall-WoodFramed-5\",\n        \"conductance\": 0.24700000000000016,\n        \"area\": 171.4426350000001,\n        \"cost\": 7227.51402757018,\n        \"cost_per_area\": 42.1570400359874,\n        \"note\": \"Surf #1: OK / 1: OK / 1: OK / 1: OK\"\n      },\n      {\n        \"name\": \"BTAP-ExteriorWindow-FixedWindow-6\",\n        \"conductance\": 1.9000000000000001,\n        \"area\": 110.07236499999986,\n        \"cost\": 6915.441163184201,\n        \"cost_per_area\": 62.82631578947368,\n        \"note\": \"Surf #1: OK / 1: OK / 1: OK / 1: OK\"\n      }\n    ],\n    \"total_envelope_cost\": 95301.81\n  },\n  \"lighting\": {\n    \"fixture_report\": [\n      {\n        \"fixture_type\": \"Nil\",\n        \"fixture_description\": \"\",\n        \"floor_area_ft2\": 6113.7,\n        \"cost\": 0.0,\n        \"cost_per_ft2\": 0.0,\n        \"spaces\": [\n          \"Attic\"\n        ],\n        \"number_of_spaces\": 1\n      },\n      {\n        \"fixture_type\": \"7\",\n        \"fixture_description\": \"High Bay (10 ft above work plane) Fluorescent Lighting 1.5 W/ft2 (16 W/m2), 103FC, 7 Fixtures per 1000 ft2\",\n        \"floor_area_ft2\": 5502.1,\n        \"cost\": 28152.021652258096,\n        \"cost_per_ft2\": 5.116595782021063,\n        \"spaces\": [\n          \"Core_ZN\",\n          \"Perimeter_ZN_1\",\n          \"Perimeter_ZN_2\",\n          \"Perimeter_ZN_3\",\n          \"Perimeter_ZN_4\"\n        ],\n        \"number_of_spaces\": 5\n      }\n    ],\n    \"space_report\": [\n      {\n        \"space\": \"Attic\",\n        \"zone\": \"Sp-Attic Sys-0 Flr-2 Sch-- undefined - HPlcmt-core ZN\",\n        \"building_type\": \"Space Function\",\n        \"space_type\": \"- undefined -\",\n        \"zone_multiplier\": 1,\n        \"fixture_type\": \"Nil\",\n        \"fixture_desciption\": \"\",\n        \"height_avg_ft\": 4.6,\n        \"floor_area_ft2\": 6113.7,\n        \"cost\": 0.0,\n        \"cost_per_ft2\": 0.0,\n        \"note\": \"\"\n      },\n      {\n        \"space\": \"Core_ZN\",\n        \"zone\": \"Sp-Core_ZN Sys-3 Flr-1 Sch-A HPlcmt-core ZN\",\n        \"building_type\": \"Space Function\",\n        \"space_type\": \"Office enclosed <= 25 m2\",\n        \"zone_multiplier\": 1,\n        \"fixture_type\": \"7\",\n        \"fixture_desciption\": \"High Bay (10 ft above work plane) Fluorescent Lighting 1.5 W/ft2 (16 W/m2), 103FC, 7 Fixtures per 1000 ft2\",\n        \"height_avg_ft\": 10.0,\n        \"floor_area_ft2\": 1610.9,\n        \"cost\": 8242.39,\n        \"cost_per_ft2\": 5.11663618712777,\n        \"note\": \"\"\n      },\n      {\n        \"space\": \"Perimeter_ZN_1\",\n        \"zone\": \"Sp-Perimeter_ZN_1 Sys-3 Flr-1 Sch-A HPlcmt-south ZN\",\n        \"building_type\": \"Space Function\",\n        \"space_type\": \"Office enclosed <= 25 m2\",\n        \"zone_multiplier\": 1,\n        \"fixture_type\": \"7\",\n        \"fixture_desciption\": \"High Bay (10 ft above work plane) Fluorescent Lighting 1.5 W/ft2 (16 W/m2), 103FC, 7 Fixtures per 1000 ft2\",\n        \"height_avg_ft\": 10.0,\n        \"floor_area_ft2\": 1221.2,\n        \"cost\": 6248.26,\n        \"cost_per_ft2\": 5.116495873384592,\n        \"note\": \"\"\n      },\n      {\n        \"space\": \"Perimeter_ZN_2\",\n        \"zone\": \"Sp-Perimeter_ZN_2 Sys-3 Flr-1 Sch-A HPlcmt-east ZN\",\n        \"building_type\": \"Space Function\",\n        \"space_type\": \"Office enclosed <= 25 m2\",\n        \"zone_multiplier\": 1,\n        \"fixture_type\": \"7\",\n        \"fixture_desciption\": \"High Bay (10 ft above work plane) Fluorescent Lighting 1.5 W/ft2 (16 W/m2), 103FC, 7 Fixtures per 1000 ft2\",\n        \"height_avg_ft\": 10.0,\n        \"floor_area_ft2\": 724.4,\n        \"cost\": 3706.55,\n        \"cost_per_ft2\": 5.116718754212844,\n        \"note\": \"\"\n      },\n      {\n        \"space\": \"Perimeter_ZN_3\",\n        \"zone\": \"Sp-Perimeter_ZN_3 Sys-3 Flr-1 Sch-A HPlcmt-north ZN\",\n        \"building_type\": \"Space Function\",\n        \"space_type\": \"Office enclosed <= 25 m2\",\n        \"zone_multiplier\": 1,\n        \"fixture_type\": \"7\",\n        \"fixture_desciption\": \"High Bay (10 ft above work plane) Fluorescent Lighting 1.5 W/ft2 (16 W/m2), 103FC, 7 Fixtures per 1000 ft2\",\n        \"height_avg_ft\": 10.0,\n        \"floor_area_ft2\": 1221.2,\n        \"cost\": 6248.26,\n        \"cost_per_ft2\": 5.1164958733845936,\n        \"note\": \"\"\n      },\n      {\n        \"space\": \"Perimeter_ZN_4\",\n        \"zone\": \"Sp-Perimeter_ZN_4 Sys-3 Flr-1 Sch-A HPlcmt-west ZN\",\n        \"building_type\": \"Space Function\",\n        \"space_type\": \"Office enclosed <= 25 m2\",\n        \"zone_multiplier\": 1,\n        \"fixture_type\": \"7\",\n        \"fixture_desciption\": \"High Bay (10 ft above work plane) Fluorescent Lighting 1.5 W/ft2 (16 W/m2), 103FC, 7 Fixtures per 1000 ft2\",\n        \"height_avg_ft\": 10.0,\n        \"floor_area_ft2\": 724.4,\n        \"cost\": 3706.55,\n        \"cost_per_ft2\": 5.116718754212844,\n        \"note\": \"\"\n      }\n    ],\n    \"total_lighting_cost\": 28152.02\n  },\n  \"heating_and_cooling\": {\n    \"plant_equipment\": [\n      {\n        \"type\": \"boilers\",\n        \"nom_flr2flr_hght_ft\": 15.1,\n        \"ht_roof_ft\": 15.1,\n        \"longest_distance_to_ext_ft\": 45.4,\n        \"wiring_and_gas_connections_distance_ft\": 45.4,\n        \"equipment_cost\": 8266.4,\n        \"flue_cost\": 1720.79,\n        \"wiring_and_gas_connections_cost\": 1313.49,\n        \"pump_cost\": 20831.82,\n        \"piping_cost\": 1721.14,\n        \"total_cost\": 33853.65\n      },\n      {\n        \"type\": \"chillers\",\n        \"nom_flr2flr_hght_ft\": 15.1,\n        \"ht_roof_ft\": 15.1,\n        \"longest_distance_to_ext_ft\": 45.4,\n        \"wiring_and_gas_connections_distance_ft\": 45.4,\n        \"equipment_cost\": 0.0,\n        \"flue_cost\": 0.0,\n        \"wiring_and_gas_connections_cost\": 0.0,\n        \"pump_cost\": 0.0,\n        \"piping_cost\": 0.0,\n        \"total_cost\": 0.0\n      },\n      {\n        \"type\": \"cooling_towers\",\n        \"nom_flr2flr_hght_ft\": 15.1,\n        \"ht_roof_ft\": 15.1,\n        \"longest_distance_to_ext_ft\": 45.4,\n        \"wiring_and_gas_connections_distance_ft\": 45.4,\n        \"equipment_cost\": 0.0,\n        \"wiring_and_gas_connections_cost\": 0.0,\n        \"pump_cost\": 0.0,\n        \"piping_cost\": 0.0,\n        \"total_cost\": 0.0\n      }\n    ],\n    \"zonal_systems\": [\n      {\n        \"systype\": null,\n        \"zone_number\": 2,\n        \"zone_name\": \"Sp-Core_ZN Sys-3 Flr-1 Sch-A HPlcmt-core ZN\",\n        \"zone_multiple\": 1,\n        \"heat_capacity(kW)\": 4.2,\n        \"cool_capacity(kW)\": 0.0,\n        \"heat_cost\": 0.0,\n        \"cool_cost\": 0.0,\n        \"heatcool_cost\": 0.0,\n        \"num_units\": null,\n        \"cummultive_cost\": 0.0\n      },\n      {\n        \"systype\": null,\n        \"zone_number\": 3,\n        \"zone_name\": \"Sp-Perimeter_ZN_1 Sys-3 Flr-1 Sch-A HPlcmt-south ZN\",\n        \"zone_multiple\": 1,\n        \"heat_capacity(kW)\": 6.2,\n        \"cool_capacity(kW)\": 0.0,\n        \"heat_cost\": 0.0,\n        \"cool_cost\": 0.0,\n        \"heatcool_cost\": 0.0,\n        \"num_units\": null,\n        \"cummultive_cost\": 0.0\n      },\n      {\n        \"systype\": null,\n        \"zone_number\": 4,\n        \"zone_name\": \"Sp-Perimeter_ZN_2 Sys-3 Flr-1 Sch-A HPlcmt-east ZN\",\n        \"zone_multiple\": 1,\n        \"heat_capacity(kW)\": 4.0,\n        \"cool_capacity(kW)\": 0.0,\n        \"heat_cost\": 0.0,\n        \"cool_cost\": 0.0,\n        \"heatcool_cost\": 0.0,\n        \"num_units\": null,\n        \"cummultive_cost\": 0.0\n      },\n      {\n        \"systype\": null,\n        \"zone_number\": 5,\n        \"zone_name\": \"Sp-Perimeter_ZN_3 Sys-3 Flr-1 Sch-A HPlcmt-north ZN\",\n        \"zone_multiple\": 1,\n        \"heat_capacity(kW)\": 6.2,\n        \"cool_capacity(kW)\": 0.0,\n        \"heat_cost\": 0.0,\n        \"cool_cost\": 0.0,\n        \"heatcool_cost\": 0.0,\n        \"num_units\": null,\n        \"cummultive_cost\": 0.0\n      },\n      {\n        \"systype\": null,\n        \"zone_number\": 6,\n        \"zone_name\": \"Sp-Perimeter_ZN_4 Sys-3 Flr-1 Sch-A HPlcmt-west ZN\",\n        \"zone_multiple\": 1,\n        \"heat_capacity(kW)\": 4.0,\n        \"cool_capacity(kW)\": 0.0,\n        \"heat_cost\": 0.0,\n        \"cool_cost\": 0.0,\n        \"heatcool_cost\": 0.0,\n        \"num_units\": null,\n        \"cummultive_cost\": 0.0\n      }\n    ]\n  },\n  \"shw\": {\n  },\n  \"ventilation\": {\n  },\n  \"totals\": {\n    \"envelope\": 95301.81,\n    \"lighting\": 28152.02,\n    \"heating_and_cooling\": 33853.65,\n    \"shw\": 0.0,\n    \"ventilation\": 254882.09,\n    \"grand_total\": 412189.57\n  },\n  \"zonal systems\": {\n  }\n}"
               },
               {
                  "name" : "model_osm_zip",
[...]
               },
               {
                  "name" : "geo_city",
                  "value" : "CFB Greenwood"
               },
               {
                  "name" : "geo_province",
                  "value" : "NS"
               },
               {
                  "name" : "geo_country",
                  "value" : "CAN"
               },
               {
                  "name" : "geo_latitude_deg",
                  "value" : "44.983"
               },
               {
                  "name" : "geo_longitude_deg",
                  "value" : "-64.917"
               },
               {
                  "name" : "geo_heating_degree_days_dd",
                  "value" : "4140.0"
               },
               {
                  "name" : "geo_cooling_degree_days_dd",
                  "value" : "171.0"
               },
               {
                  "name" : "geo_necb_climate_zone",
                  "value" : "6"
               },
               {
                  "name" : "qaqc_unmet_hours_heating_hours",
                  "value" : "0.0"
               },
               {
                  "name" : "qaqc_unmet_hours_cooling_hours",
                  "value" : "203.0"
               },
               {
                  "name" : "envelope_conditioned_floor_area_m_2",
                  "value" : "511.15740000000005"
               },
               {
                  "name" : "envelope_exterior_surface_area_m_2",
                  "value" : "937.0966811798495"
               },
               {
                  "name" : "envelope_building_volume_m_3",
                  "value" : "2357.4440151428576"
               },
               {
                  "name" : "envelope_outdoor_walls_average_conductance_w_per_m_2_k",
                  "value" : "0.247"
               },
               {
                  "name" : "envelope_outdoor_roofs_average_conductance_w_per_m_2_k",
                  "value" : "0.156"
               },
               {
                  "name" : "envelope_outdoor_floors_average_conductance_w_per_m_2_k",
                  "value" : "0.183"
               },
               {
                  "name" : "envelope_ground_walls_average_conductance_w_per_m_2_k",
                  "value" : ""
               },
               {
                  "name" : "envelope_ground_roofs_average_conductance_w_per_m_2_k",
                  "value" : ""
               },
               {
                  "name" : "envelope_ground_floors_average_conductance_w_per_m_2_k",
                  "value" : "0.757"
               },
               {
                  "name" : "envelope_outdoor_windows_average_conductance_w_per_m_2_k",
                  "value" : "1.9"
               },
               {
                  "name" : "envelope_outdoor_doors_average_conductance_w_per_m_2_k",
                  "value" : ""
               },
               {
                  "name" : "envelope_outdoor_overhead_doors_average_conductance_w_per_m_2_k",
                  "value" : ""
               },
               {
                  "name" : "envelope_skylights_average_conductance_w_per_m_2_k",
                  "value" : ""
               },
               {
                  "name" : "envelope_fdwr_ratio",
                  "value" : "39.1"
               },
               {
                  "name" : "envelope_srr_ratio",
                  "value" : "0.0"
               },
               {
                  "name" : "peak_electricy_power_watts",
                  "value" : "21808.95"
               },
               {
                  "name" : "peak_natural_gas_watts",
                  "value" : "3067.97"
               },
               {
                  "name" : "costing_information",
                  "value" : "{\"rs_means_city\"=>\"BRIDGEWATER\", \"rs_means_prov\"=>\"NOVA SCOTIA\", \"envelope\"=>{\"exterior_wall_cost\"=>7227.5, \"exterior_wall_area_m2\"=>171.39999999999998, \"exterior_wall_cost_per_m2\"=>42.17, \"exterior_roof_cost\"=>47493.740000000005, \"exterior_roof_area_m2\"=>598.8, \"exterior_roof_cost_per_m2\"=>79.31, \"exterior_floor_cost\"=>1993.3600000000001, \"exterior_floor_area_m2\"=>56.8, \"exterior_floor_cost_per_m2\"=>35.09, \"exterior_fixed_window_cost\"=>6915.4400000000005, \"exterior_fixed_window_area_m2\"=>110.0, \"exterior_fixed_window_cost_per_m2\"=>62.87, \"exterior_operable_window_cost\"=>0.0, \"exterior_operable_window_area_m2\"=>0.0, \"exterior_operable_window_cost_per_m2\"=>0.0, \"exterior_skylight_cost\"=>0.0, \"exterior_skylight_area_m2\"=>0.0, \"exterior_skylight_cost_per_m2\"=>0.0, \"exterior_tubular_daylight_diffuser_cost\"=>0.0, \"exterior_tubular_daylight_diffuser_area_m2\"=>0.0, \"exterior_tubular_daylight_diffuser_cost_per_m2\"=>0.0, \"exterior_tubular_daylight_dome_cost\"=>0.0, \"exterior_tubular_daylight_dome_area_m2\"=>0.0, \"exterior_tubular_daylight_dome_cost_per_m2\"=>0.0, \"exterior_door_cost\"=>0.0, \"exterior_door_area_m2\"=>0.0, \"exterior_door_cost_per_m2\"=>0.0, \"exterior_glass_door_cost\"=>0.0, \"exterior_glass_door_area_m2\"=>0.0, \"exterior_glass_door_cost_per_m2\"=>0.0, \"exterior_overhead_door_cost\"=>0.0, \"exterior_overhead_door_area_m2\"=>0.0, \"exterior_overhead_door_cost_per_m2\"=>0.0, \"ground_contact_wall_cost\"=>0.0, \"ground_contact_wall_area_m2\"=>0.0, \"ground_contact_wall_cost_per_m2\"=>0.0, \"ground_contact_roof_cost\"=>0.0, \"ground_contact_roof_area_m2\"=>0.0, \"ground_contact_roof_cost_per_m2\"=>0.0, \"ground_contact_floor_cost\"=>31671.760000000002, \"ground_contact_floor_area_m2\"=>511.3, \"ground_contact_floor_cost_per_m2\"=>61.94, \"construction_costs\"=>[{\"name\"=>\"BTAP-ExteriorRoof-IEAD-4\", \"conductance\"=>0.15599999999999992, \"area\"=>598.7616811798496, \"cost\"=>47493.72537497362, \"cost_per_area\"=>79.31991452991456, \"note\"=>\"Surf #1: OK / 2: OK / 3: OK / 4: OK\"}, {\"name\"=>\"BTAP-ExteriorFloor-SteelFramed-1\", \"conductance\"=>0.183, \"area\"=>56.8199999999999, \"cost\"=>1993.3675226968335, \"cost_per_area\"=>35.08214577079966, \"note\"=>\"Surf #1: OK / 2: OK / 3: OK / 4: OK\"}, {\"name\"=>\"BTAP-GroundContactFloor-Unheated-1\", \"conductance\"=>0.7570000000000018, \"area\"=>511.1574, \"cost\"=>31671.75959535703, \"cost_per_area\"=>61.960874664745205, \"note\"=>\"Surf #1: OK / 1: OK / 1: OK / 1: OK / 1: OK\"}, {\"name\"=>\"BTAP-ExteriorWall-WoodFramed-5\", \"conductance\"=>0.24700000000000016, \"area\"=>171.4426350000001, \"cost\"=>7227.51402757018, \"cost_per_area\"=>42.1570400359874, \"note\"=>\"Surf #1: OK / 1: OK / 1: OK / 1: OK\"}, {\"name\"=>\"BTAP-ExteriorWindow-FixedWindow-6\", \"conductance\"=>1.9000000000000001, \"area\"=>110.07236499999986, \"cost\"=>6915.441163184201, \"cost_per_area\"=>62.82631578947368, \"note\"=>\"Surf #1: OK / 1: OK / 1: OK / 1: OK\"}], \"total_envelope_cost\"=>95301.81}, \"lighting\"=>{\"fixture_report\"=>[{\"fixture_type\"=>\"Nil\", \"fixture_description\"=>\"\", \"floor_area_ft2\"=>6113.7, \"cost\"=>0.0, \"cost_per_ft2\"=>0.0, \"spaces\"=>[\"Attic\"], \"number_of_spaces\"=>1}, {\"fixture_type\"=>\"7\", \"fixture_description\"=>\"High Bay (10 ft above work plane) Fluorescent Lighting 1.5 W/ft2 (16 W/m2), 103FC, 7 Fixtures per 1000 ft2\", \"floor_area_ft2\"=>5502.1, \"cost\"=>28152.021652258096, \"cost_per_ft2\"=>5.116595782021063, \"spaces\"=>[\"Core_ZN\", \"Perimeter_ZN_1\", \"Perimeter_ZN_2\", \"Perimeter_ZN_3\", \"Perimeter_ZN_4\"], \"number_of_spaces\"=>5}], \"space_report\"=>[{\"space\"=>\"Attic\", \"zone\"=>\"Sp-Attic Sys-0 Flr-2 Sch-- undefined - HPlcmt-core ZN\", \"building_type\"=>\"Space Function\", \"space_type\"=>\"- undefined -\", \"zone_multiplier\"=>1, \"fixture_type\"=>\"Nil\", \"fixture_desciption\"=>\"\", \"height_avg_ft\"=>4.6, \"floor_area_ft2\"=>6113.7, \"cost\"=>0.0, \"cost_per_ft2\"=>0.0, \"note\"=>\"\"}, {\"space\"=>\"Core_ZN\", \"zone\"=>\"Sp-Core_ZN Sys-3 Flr-1 Sch-A HPlcmt-core ZN\", \"building_type\"=>\"Space Function\", \"space_type\"=>\"Office enclosed <= 25 m2\", \"zone_multiplier\"=>1, \"fixture_type\"=>\"7\", \"fixture_desciption\"=>\"High Bay (10 ft above work plane) Fluorescent Lighting 1.5 W/ft2 (16 W/m2), 103FC, 7 Fixtures per 1000 ft2\", \"height_avg_ft\"=>10.0, \"floor_area_ft2\"=>1610.9, \"cost\"=>8242.39, \"cost_per_ft2\"=>5.11663618712777, \"note\"=>\"\"}, {\"space\"=>\"Perimeter_ZN_1\", \"zone\"=>\"Sp-Perimeter_ZN_1 Sys-3 Flr-1 Sch-A HPlcmt-south ZN\", \"building_type\"=>\"Space Function\", \"space_type\"=>\"Office enclosed <= 25 m2\", \"zone_multiplier\"=>1, \"fixture_type\"=>\"7\", \"fixture_desciption\"=>\"High Bay (10 ft above work plane) Fluorescent Lighting 1.5 W/ft2 (16 W/m2), 103FC, 7 Fixtures per 1000 ft2\", \"height_avg_ft\"=>10.0, \"floor_area_ft2\"=>1221.2, \"cost\"=>6248.26, \"cost_per_ft2\"=>5.116495873384592, \"note\"=>\"\"}, {\"space\"=>\"Perimeter_ZN_2\", \"zone\"=>\"Sp-Perimeter_ZN_2 Sys-3 Flr-1 Sch-A HPlcmt-east ZN\", \"building_type\"=>\"Space Function\", \"space_type\"=>\"Office enclosed <= 25 m2\", \"zone_multiplier\"=>1, \"fixture_type\"=>\"7\", \"fixture_desciption\"=>\"High Bay (10 ft above work plane) Fluorescent Lighting 1.5 W/ft2 (16 W/m2), 103FC, 7 Fixtures per 1000 ft2\", \"height_avg_ft\"=>10.0, \"floor_area_ft2\"=>724.4, \"cost\"=>3706.55, \"cost_per_ft2\"=>5.116718754212844, \"note\"=>\"\"}, {\"space\"=>\"Perimeter_ZN_3\", \"zone\"=>\"Sp-Perimeter_ZN_3 Sys-3 Flr-1 Sch-A HPlcmt-north ZN\", \"building_type\"=>\"Space Function\", \"space_type\"=>\"Office enclosed <= 25 m2\", \"zone_multiplier\"=>1, \"fixture_type\"=>\"7\", \"fixture_desciption\"=>\"High Bay (10 ft above work plane) Fluorescent Lighting 1.5 W/ft2 (16 W/m2), 103FC, 7 Fixtures per 1000 ft2\", \"height_avg_ft\"=>10.0, \"floor_area_ft2\"=>1221.2, \"cost\"=>6248.26, \"cost_per_ft2\"=>5.1164958733845936, \"note\"=>\"\"}, {\"space\"=>\"Perimeter_ZN_4\", \"zone\"=>\"Sp-Perimeter_ZN_4 Sys-3 Flr-1 Sch-A HPlcmt-west ZN\", \"building_type\"=>\"Space Function\", \"space_type\"=>\"Office enclosed <= 25 m2\", \"zone_multiplier\"=>1, \"fixture_type\"=>\"7\", \"fixture_desciption\"=>\"High Bay (10 ft above work plane) Fluorescent Lighting 1.5 W/ft2 (16 W/m2), 103FC, 7 Fixtures per 1000 ft2\", \"height_avg_ft\"=>10.0, \"floor_area_ft2\"=>724.4, \"cost\"=>3706.55, \"cost_per_ft2\"=>5.116718754212844, \"note\"=>\"\"}], \"total_lighting_cost\"=>28152.02}, \"heating_and_cooling\"=>{\"plant_equipment\"=>[{\"type\"=>\"boilers\", \"nom_flr2flr_hght_ft\"=>15.1, \"ht_roof_ft\"=>15.1, \"longest_distance_to_ext_ft\"=>45.4, \"wiring_and_gas_connections_distance_ft\"=>45.4, \"equipment_cost\"=>8266.4, \"flue_cost\"=>1720.79, \"wiring_and_gas_connections_cost\"=>1313.49, \"pump_cost\"=>20831.82, \"piping_cost\"=>1721.14, \"total_cost\"=>33853.65}, {\"type\"=>\"chillers\", \"nom_flr2flr_hght_ft\"=>15.1, \"ht_roof_ft\"=>15.1, \"longest_distance_to_ext_ft\"=>45.4, \"wiring_and_gas_connections_distance_ft\"=>45.4, \"equipment_cost\"=>0.0, \"flue_cost\"=>0.0, \"wiring_and_gas_connections_cost\"=>0.0, \"pump_cost\"=>0.0, \"piping_cost\"=>0.0, \"total_cost\"=>0.0}, {\"type\"=>\"cooling_towers\", \"nom_flr2flr_hght_ft\"=>15.1, \"ht_roof_ft\"=>15.1, \"longest_distance_to_ext_ft\"=>45.4, \"wiring_and_gas_connections_distance_ft\"=>45.4, \"equipment_cost\"=>0.0, \"wiring_and_gas_connections_cost\"=>0.0, \"pump_cost\"=>0.0, \"piping_cost\"=>0.0, \"total_cost\"=>0.0}], \"zonal_systems\"=>[{\"systype\"=>nil, \"zone_number\"=>2, \"zone_name\"=>\"Sp-Core_ZN Sys-3 Flr-1 Sch-A HPlcmt-core ZN\", \"zone_multiple\"=>1, \"heat_capacity(kW)\"=>4.2, \"cool_capacity(kW)\"=>0.0, \"heat_cost\"=>0.0, \"cool_cost\"=>0.0, \"heatcool_cost\"=>0.0, \"num_units\"=>nil, \"cummultive_cost\"=>0.0}, {\"systype\"=>nil, \"zone_number\"=>3, \"zone_name\"=>\"Sp-Perimeter_ZN_1 Sys-3 Flr-1 Sch-A HPlcmt-south ZN\", \"zone_multiple\"=>1, \"heat_capacity(kW)\"=>6.2, \"cool_capacity(kW)\"=>0.0, \"heat_cost\"=>0.0, \"cool_cost\"=>0.0, \"heatcool_cost\"=>0.0, \"num_units\"=>nil, \"cummultive_cost\"=>0.0}, {\"systype\"=>nil, \"zone_number\"=>4, \"zone_name\"=>\"Sp-Perimeter_ZN_2 Sys-3 Flr-1 Sch-A HPlcmt-east ZN\", \"zone_multiple\"=>1, \"heat_capacity(kW)\"=>4.0, \"cool_capacity(kW)\"=>0.0, \"heat_cost\"=>0.0, \"cool_cost\"=>0.0, \"heatcool_cost\"=>0.0, \"num_units\"=>nil, \"cummultive_cost\"=>0.0}, {\"systype\"=>nil, \"zone_number\"=>5, \"zone_name\"=>\"Sp-Perimeter_ZN_3 Sys-3 Flr-1 Sch-A HPlcmt-north ZN\", \"zone_multiple\"=>1, \"heat_capacity(kW)\"=>6.2, \"cool_capacity(kW)\"=>0.0, \"heat_cost\"=>0.0, \"cool_cost\"=>0.0, \"heatcool_cost\"=>0.0, \"num_units\"=>nil, \"cummultive_cost\"=>0.0}, {\"systype\"=>nil, \"zone_number\"=>6, \"zone_name\"=>\"Sp-Perimeter_ZN_4 Sys-3 Flr-1 Sch-A HPlcmt-west ZN\", \"zone_multiple\"=>1, \"heat_capacity(kW)\"=>4.0, \"cool_capacity(kW)\"=>0.0, \"heat_cost\"=>0.0, \"cool_cost\"=>0.0, \"heatcool_cost\"=>0.0, \"num_units\"=>nil, \"cummultive_cost\"=>0.0}]}, \"shw\"=>{}, \"ventilation\"=>{}, \"totals\"=>{\"envelope\"=>95301.81, \"lighting\"=>28152.02, \"heating_and_cooling\"=>33853.65, \"shw\"=>0.0, \"ventilation\"=>254882.09, \"grand_total\"=>412189.57}, \"zonal systems\"=>{}}"
               },
               {
                  "name" : "total_envelope_cost",
                  "value" : 95301.809999999998
               },
               {
                  "name" : "total_lighting_cost",
                  "value" : 28152.02
               },
               {
                  "name" : "total_heating_cooling_cost",
                  "value" : 0
               },
               {
                  "name" : "total_shw_cost",
                  "value" : 0
               },
               {
                  "name" : "total_ventilation_cost",
                  "value" : 254882.09
               },
               {
                  "name" : "total_capital_cost",
                  "value" : 0
               },
               {
                  "name" : "total_neb_utility_costs",
                  "value" : 6875.0468000000001
               },
               {
                  "name" : "total_capital_and_energy_costs",
                  "value" : 6875.0468000000001
               },
               {
                  "name" : "total_envelope_and_energy_costs",
                  "value" : 102176.85679999999
               }
            ],
            "step_warnings" : []
         }
      },
      {
         "arguments" : {},
         "description" : "Removes a significant portion of the saved results from each run, helping to alleviate memory problems.",
         "measure_dir_name" : "ServerDirectoryCleanup",
         "name" : "server_directory_cleanup",
         "result" : {
            "completed_at" : "20190517T152405Z",
            "measure_class_name" : "ServerDirectoryCleanup",
            "measure_display_name" : "Server Directory Cleanup",
            "measure_name" : "server_directory_cleanup",
            "measure_taxonomy" : "Calibration",
            "measure_type" : "ReportingMeasure",
            "measure_uid" : "ec7d04ad-0b7b-495b-825a-e1b6d28d1d3f",
            "measure_version_id" : "2e0a3f67-3aa6-42cc-b9ff-8aa66615c0a1",
            "measure_version_modified" : "20190226T195336Z",
            "measure_xml_checksum" : "5F1EDF75",
            "started_at" : "20190517T152405Z",
            "stderr" : "",
            "stdout" : "[OpenStudio.Measure] <0> OSArgumentVector is deprecated, use OpenStudio::Measure::OSArgumentVector instead.\n",
            "step_errors" : [],
            "step_files" : [],
            "step_final_condition" : "The following files were in the local run directory following to the execution of this measure: eplusout.mtr, 000_btap_create_necb_prototype_building, sqlite.err, run.log, in.epw, pre-preprocess.idf, measure_attributes.json, eplusout.rdd, 002_btap_utility_tariffs, 001_BTAPHeatPumpAirSystem, 003_ServerDirectoryCleanup, eplusout.mtd, stdout-expandobject, 004_ServerDirectoryCleanup, in.idf, ., eplusout.end, eplustbl.htm, stdout-energyplus, eplusout.err, 003_btap_results, started.job, ...",
            "step_info" : [
               "Deleted ./../eplusout.sql from the run directory.",
               "Deleted ./../eplusout.audit from the run directory.",
               "Deleted ./../in.osm from the run directory.",
               "Deleted ./../eplusout.bnd from the run directory.",
               "Deleted ./../eplusout.eio from the run directory.",
               "Deleted ./../eplusout.shd from the run directory.",
               "Deleted ./../eplusout.mdd from the run directory.",
               "Deleted ./../eplusssz.csv from the run directory.",
               "Deleted ./../epluszsz.csv from the run directory.",
               "Deleted ./../eplusout.eso from the run directory."
            ],
            "step_initial_condition" : "The following files were in the local run directory prior to the execution of this measure: in.osm, eplusout.sql, eplusssz.csv, eplusout.mtr, 000_btap_create_necb_prototype_building, sqlite.err, run.log, in.epw, pre-preprocess.idf, epluszsz.csv, eplusout.bnd, measure_attributes.json, eplusout.rdd, 002_btap_utility_tariffs, 001_BTAPHeatPumpAirSystem, 003_ServerDirectoryCleanup, eplusout.mtd, eplusout.eio, stdout-expandobject, eplusout.eso, 004_ServerDirectoryCleanup, in.idf, eplusout.shd, ., eplusout.end, eplustbl.htm, stdout-energyplus, eplusout.err, eplusout.audit, 003_btap_results, eplusout.mdd, started.job, ...",
            "step_result" : "Success",
            "step_values" : [],
            "step_warnings" : []
         }
      }
   ],
   "updated_at" : "20190517T152408Z",
   "weather_file" : "dummy.epw"
}
