{
   "completed_at" : "20190517T152647Z",
   "completed_status" : "Success",
   "created_at" : "2019-05-17 15:22:52 +0000",
   "current_step" : 5,
   "description" : "",
   "eplusout_err" : "Program Version,EnergyPlus, Version 8.9.0-eba93e8e1b, YMD=2019.05.17 15:25,\n   ************* Beginning Zone Sizing Calculations\n   ** Warning ** ProcessScheduleInput: Schedule:Day:Interval=\"ECONOMIZER MAX OA FRACTION 100 PCT DEFAULT\", Blank Schedule Type Limits Name input -- will not be validated.\n   ** Warning ** ProcessScheduleInput: Schedule:Day:Interval=\"SCHEDULE DAY 1\", Blank Schedule Type Limits Name input -- will not be validated.\n   ** Warning ** ProcessScheduleInput: Schedule:Day:Interval=\"SCHEDULE DAY 10\", Blank Schedule Type Limits Name input -- will not be validated.\n   ** Warning ** ProcessScheduleInput: Schedule:Day:Interval=\"SCHEDULE DAY 11\", Blank Schedule Type Limits Name input -- will not be validated.\n   ** Warning ** ProcessScheduleInput: Schedule:Day:Interval=\"SCHEDULE DAY 12\", Blank Schedule Type Limits Name input -- will not be validated.\n   ** Warning ** ProcessScheduleInput: Schedule:Day:Interval=\"SCHEDULE DAY 13\", Blank Schedule Type Limits Name input -- will not be validated.\n   ** Warning ** ProcessScheduleInput: Schedule:Day:Interval=\"SCHEDULE DAY 14\", Blank Schedule Type Limits Name input -- will not be validated.\n   ** Warning ** ProcessScheduleInput: Schedule:Day:Interval=\"SCHEDULE DAY 15\", Blank Schedule Type Limits Name input -- will not be validated.\n   ** Warning ** ProcessScheduleInput: Schedule:Day:Interval=\"SCHEDULE DAY 16\", Blank Schedule Type Limits Name input -- will not be validated.\n   ** Warning ** ProcessScheduleInput: Schedule:Day:Interval=\"SCHEDULE DAY 17\", Blank Schedule Type Limits Name input -- will not be validated.\n   ** Warning ** ProcessScheduleInput: Schedule:Day:Interval=\"SCHEDULE DAY 18\", Blank Schedule Type Limits Name input -- will not be validated.\n   ** Warning ** ProcessScheduleInput: Schedule:Day:Interval=\"SCHEDULE DAY 19\", Blank Schedule Type Limits Name input -- will not be validated.\n   ** Warning ** ProcessScheduleInput: Schedule:Day:Interval=\"SCHEDULE DAY 2\", Blank Schedule Type Limits Name input -- will not be validated.\n   ** Warning ** ProcessScheduleInput: Schedule:Day:Interval=\"SCHEDULE DAY 20\", Blank Schedule Type Limits Name input -- will not be validated.\n   ** Warning ** ProcessScheduleInput: Schedule:Day:Interval=\"SCHEDULE DAY 21\", Blank Schedule Type Limits Name input -- will not be validated.\n   ** Warning ** ProcessScheduleInput: Schedule:Day:Interval=\"SCHEDULE DAY 22\", Blank Schedule Type Limits Name input -- will not be validated.\n   ** Warning ** ProcessScheduleInput: Schedule:Day:Interval=\"SCHEDULE DAY 23\", Blank Schedule Type Limits Name input -- will not be validated.\n   ** Warning ** ProcessScheduleInput: Schedule:Day:Interval=\"SCHEDULE DAY 24\", Blank Schedule Type Limits Name input -- will not be validated.\n   ** Warning ** ProcessScheduleInput: Schedule:Day:Interval=\"SCHEDULE DAY 25\", Blank Schedule Type Limits Name input -- will not be validated.\n   ** Warning ** ProcessScheduleInput: Schedule:Day:Interval=\"SCHEDULE DAY 26\", Blank Schedule Type Limits Name input -- will not be validated.\n   ** Warning ** ProcessScheduleInput: Schedule:Day:Interval=\"SCHEDULE DAY 27\", Blank Schedule Type Limits Name input -- will not be validated.\n   ** Warning ** ProcessScheduleInput: Schedule:Day:Interval=\"SCHEDULE DAY 28\", Blank Schedule Type Limits Name input -- will not be validated.\n   ** Warning ** ProcessScheduleInput: Schedule:Day:Interval=\"SCHEDULE DAY 29\", Blank Schedule Type Limits Name input -- will not be validated.\n   ** Warning ** ProcessScheduleInput: Schedule:Day:Interval=\"SCHEDULE DAY 30\", Blank Schedule Type Limits Name input -- will not be validated.\n   ** Warning ** ProcessScheduleInput: Schedule:Day:Interval=\"SCHEDULE DAY 31\", Blank Schedule Type Limits Name input -- will not be validated.\n   ** Warning ** ProcessScheduleInput: Schedule:Day:Interval=\"SCHEDULE DAY 32\", Blank Schedule Type Limits Name input -- will not be validated.\n   ** Warning ** ProcessScheduleInput: Schedule:Day:Interval=\"SCHEDULE DAY 33\", Blank Schedule Type Limits Name input -- will not be validated.\n   ** Warning ** ProcessScheduleInput: Schedule:Day:Interval=\"SCHEDULE DAY 34\", Blank Schedule Type Limits Name input -- will not be validated.\n   ** Warning ** ProcessScheduleInput: Schedule:Day:Interval=\"SCHEDULE DAY 35\", Blank Schedule Type Limits Name input -- will not be validated.\n   ** Warning ** ProcessScheduleInput: Schedule:Day:Interval=\"SCHEDULE DAY 36\", Blank Schedule Type Limits Name input -- will not be validated.\n   ** Warning ** ProcessScheduleInput: Schedule:Day:Interval=\"SCHEDULE DAY 37\", Blank Schedule Type Limits Name input -- will not be validated.\n   ** Warning ** ProcessScheduleInput: Schedule:Day:Interval=\"SCHEDULE DAY 38\", Blank Schedule Type Limits Name input -- will not be validated.\n   ** Warning ** ProcessScheduleInput: Schedule:Day:Interval=\"SCHEDULE DAY 39\", Blank Schedule Type Limits Name input -- will not be validated.\n   ** Warning ** ProcessScheduleInput: Schedule:Day:Interval=\"SCHEDULE DAY 40\", Blank Schedule Type Limits Name input -- will not be validated.\n   ** Warning ** ProcessScheduleInput: Schedule:Day:Interval=\"SCHEDULE DAY 41\", Blank Schedule Type Limits Name input -- will not be validated.\n   ** Warning ** ProcessScheduleInput: Schedule:Day:Interval=\"SCHEDULE DAY 42\", Blank Schedule Type Limits Name input -- will not be validated.\n   ** Warning ** ProcessScheduleInput: Schedule:Day:Interval=\"SCHEDULE DAY 43\", Blank Schedule Type Limits Name input -- will not be validated.\n   ** Warning ** ProcessScheduleInput: Schedule:Day:Interval=\"SCHEDULE DAY 44\", Blank Schedule Type Limits Name input -- will not be validated.\n   ** Warning ** ProcessScheduleInput: Schedule:Day:Interval=\"SCHEDULE DAY 45\", Blank Schedule Type Limits Name input -- will not be validated.\n   ** Warning ** ProcessScheduleInput: Schedule:Day:Interval=\"SCHEDULE DAY 46\", Blank Schedule Type Limits Name input -- will not be validated.\n   ** Warning ** ProcessScheduleInput: Schedule:Day:Interval=\"SCHEDULE DAY 47\", Blank Schedule Type Limits Name input -- will not be validated.\n   ** Warning ** ProcessScheduleInput: Schedule:Day:Interval=\"SCHEDULE DAY 48\", Blank Schedule Type Limits Name input -- will not be validated.\n   ** Warning ** ProcessScheduleInput: Schedule:Day:Interval=\"SCHEDULE DAY 49\", Blank Schedule Type Limits Name input -- will not be validated.\n   ** Warning ** ProcessScheduleInput: Schedule:Day:Interval=\"SCHEDULE DAY 50\", Blank Schedule Type Limits Name input -- will not be validated.\n   ** Warning ** ProcessScheduleInput: Schedule:Day:Interval=\"SCHEDULE DAY 51\", Blank Schedule Type Limits Name input -- will not be validated.\n   ** Warning ** ProcessScheduleInput: Schedule:Day:Interval=\"SCHEDULE DAY 52\", Blank Schedule Type Limits Name input -- will not be validated.\n   ** Warning ** ProcessScheduleInput: Schedule:Day:Interval=\"SCHEDULE DAY 53\", Blank Schedule Type Limits Name input -- will not be validated.\n   ** Warning ** ProcessScheduleInput: Schedule:Day:Interval=\"SCHEDULE DAY 54\", Blank Schedule Type Limits Name input -- will not be validated.\n   ** Warning ** ProcessScheduleInput: Schedule:Day:Interval=\"SCHEDULE DAY 55\", Blank Schedule Type Limits Name input -- will not be validated.\n   ** Warning ** ProcessScheduleInput: Schedule:Day:Interval=\"SCHEDULE DAY 56\", Blank Schedule Type Limits Name input -- will not be validated.\n   ** Warning ** ProcessScheduleInput: Schedule:Day:Interval=\"SCHEDULE DAY 57\", Blank Schedule Type Limits Name input -- will not be validated.\n   ** Warning ** ProcessScheduleInput: Schedule:Day:Interval=\"SCHEDULE DAY 58\", Blank Schedule Type Limits Name input -- will not be validated.\n   ** Warning ** ProcessScheduleInput: Schedule:Day:Interval=\"SCHEDULE DAY 59\", Blank Schedule Type Limits Name input -- will not be validated.\n   ** Warning ** ProcessScheduleInput: Schedule:Day:Interval=\"SCHEDULE DAY 6\", Blank Schedule Type Limits Name input -- will not be validated.\n   ** Warning ** ProcessScheduleInput: Schedule:Day:Interval=\"SCHEDULE DAY 60\", Blank Schedule Type Limits Name input -- will not be validated.\n   ** Warning ** ProcessScheduleInput: Schedule:Day:Interval=\"SCHEDULE DAY 61\", Blank Schedule Type Limits Name input -- will not be validated.\n   ** Warning ** ProcessScheduleInput: Schedule:Day:Interval=\"SCHEDULE DAY 62\", Blank Schedule Type Limits Name input -- will not be validated.\n   ** Warning ** ProcessScheduleInput: Schedule:Day:Interval=\"SCHEDULE DAY 63\", Blank Schedule Type Limits Name input -- will not be validated.\n   ** Warning ** ProcessScheduleInput: Schedule:Day:Interval=\"SCHEDULE DAY 64\", Blank Schedule Type Limits Name input -- will not be validated.\n   ** Warning ** ProcessScheduleInput: Schedule:Day:Interval=\"SCHEDULE DAY 65\", Blank Schedule Type Limits Name input -- will not be validated.\n   ** Warning ** ProcessScheduleInput: Schedule:Day:Interval=\"SCHEDULE DAY 66\", Blank Schedule Type Limits Name input -- will not be validated.\n   ** Warning ** ProcessScheduleInput: Schedule:Day:Interval=\"SCHEDULE DAY 67\", Blank Schedule Type Limits Name input -- will not be validated.\n   ** Warning ** ProcessScheduleInput: Schedule:Day:Interval=\"SCHEDULE DAY 68\", Blank Schedule Type Limits Name input -- will not be validated.\n   ** Warning ** ProcessScheduleInput: Schedule:Day:Interval=\"SCHEDULE DAY 69\", Blank Schedule Type Limits Name input -- will not be validated.\n   ** Warning ** ProcessScheduleInput: Schedule:Day:Interval=\"SCHEDULE DAY 7\", Blank Schedule Type Limits Name input -- will not be validated.\n   ** Warning ** ProcessScheduleInput: Schedule:Day:Interval=\"SCHEDULE DAY 70\", Blank Schedule Type Limits Name input -- will not be validated.\n   ** Warning ** ProcessScheduleInput: Schedule:Day:Interval=\"SCHEDULE DAY 71\", Blank Schedule Type Limits Name input -- will not be validated.\n   ** Warning ** ProcessScheduleInput: Schedule:Day:Interval=\"SCHEDULE DAY 72\", Blank Schedule Type Limits Name input -- will not be validated.\n   ** Warning ** ProcessScheduleInput: Schedule:Day:Interval=\"SCHEDULE DAY 73\", Blank Schedule Type Limits Name input -- will not be validated.\n   ** Warning ** ProcessScheduleInput: Schedule:Day:Interval=\"SCHEDULE DAY 74\", Blank Schedule Type Limits Name input -- will not be validated.\n   ** Warning ** ProcessScheduleInput: Schedule:Day:Interval=\"SCHEDULE DAY 75\", Blank Schedule Type Limits Name input -- will not be validated.\n   ** Warning ** ProcessScheduleInput: Schedule:Day:Interval=\"SCHEDULE DAY 76\", Blank Schedule Type Limits Name input -- will not be validated.\n   ** Warning ** ProcessScheduleInput: Schedule:Day:Interval=\"SCHEDULE DAY 77\", Blank Schedule Type Limits Name input -- will not be validated.\n   ** Warning ** ProcessScheduleInput: Schedule:Day:Interval=\"SCHEDULE DAY 78\", Blank Schedule Type Limits Name input -- will not be validated.\n   ** Warning ** ProcessScheduleInput: Schedule:Day:Interval=\"SCHEDULE DAY 79\", Blank Schedule Type Limits Name input -- will not be validated.\n   ** Warning ** ProcessScheduleInput: Schedule:Day:Interval=\"SCHEDULE DAY 8\", Blank Schedule Type Limits Name input -- will not be validated.\n   ** Warning ** ProcessScheduleInput: Schedule:Day:Interval=\"SCHEDULE DAY 80\", Blank Schedule Type Limits Name input -- will not be validated.\n   ** Warning ** ProcessScheduleInput: Schedule:Day:Interval=\"SCHEDULE DAY 81\", Blank Schedule Type Limits Name input -- will not be validated.\n   ** Warning ** ProcessScheduleInput: Schedule:Day:Interval=\"SCHEDULE DAY 9\", Blank Schedule Type Limits Name input -- will not be validated.\n   ** Warning ** ProcessScheduleInput: Schedule:Year=\"ECONOMIZER MAX OA FRACTION 100 PCT\", Blank Schedule Type Limits Name input -- will not be validated.\n   ** Warning ** ProcessScheduleInput: Schedule:Year=\"SCHEDULE RULESET 10\", Blank Schedule Type Limits Name input -- will not be validated.\n   ** Warning ** ProcessScheduleInput: Schedule:Year=\"SCHEDULE RULESET 11\", Blank Schedule Type Limits Name input -- will not be validated.\n   ** Warning ** ProcessScheduleInput: Schedule:Year=\"SCHEDULE RULESET 12\", Blank Schedule Type Limits Name input -- will not be validated.\n   ** Warning ** ProcessScheduleInput: Schedule:Year=\"SCHEDULE RULESET 13\", Blank Schedule Type Limits Name input -- will not be validated.\n   ** Warning ** ProcessScheduleInput: Schedule:Year=\"SCHEDULE RULESET 14\", Blank Schedule Type Limits Name input -- will not be validated.\n   ** Warning ** ProcessScheduleInput: Schedule:Year=\"SCHEDULE RULESET 15\", Blank Schedule Type Limits Name input -- will not be validated.\n   ** Warning ** ProcessScheduleInput: Schedule:Year=\"SCHEDULE RULESET 16\", Blank Schedule Type Limits Name input -- will not be validated.\n   ** Warning ** ProcessScheduleInput: Schedule:Year=\"SCHEDULE RULESET 17\", Blank Schedule Type Limits Name input -- will not be validated.\n   ** Warning ** ProcessScheduleInput: Schedule:Year=\"SCHEDULE RULESET 18\", Blank Schedule Type Limits Name input -- will not be validated.\n   ** Warning ** ProcessScheduleInput: Schedule:Year=\"SCHEDULE RULESET 19\", Blank Schedule Type Limits Name input -- will not be validated.\n   ** Warning ** ProcessScheduleInput: Schedule:Year=\"SCHEDULE RULESET 20\", Blank Schedule Type Limits Name input -- will not be validated.\n   ** Warning ** ProcessScheduleInput: Schedule:Year=\"SCHEDULE RULESET 21\", Blank Schedule Type Limits Name input -- will not be validated.\n   ** Warning ** ProcessScheduleInput: Schedule:Year=\"SCHEDULE RULESET 22\", Blank Schedule Type Limits Name input -- will not be validated.\n   ** Warning ** ProcessScheduleInput: Schedule:Year=\"SCHEDULE RULESET 23\", Blank Schedule Type Limits Name input -- will not be validated.\n   ** Warning ** ProcessScheduleInput: Schedule:Year=\"SCHEDULE RULESET 24\", Blank Schedule Type Limits Name input -- will not be validated.\n   ** Warning ** ProcessScheduleInput: Schedule:Year=\"SCHEDULE RULESET 25\", Blank Schedule Type Limits Name input -- will not be validated.\n   ** Warning ** ProcessScheduleInput: Schedule:Year=\"SCHEDULE RULESET 26\", Blank Schedule Type Limits Name input -- will not be validated.\n   ** Warning ** ProcessScheduleInput: Schedule:Year=\"SCHEDULE RULESET 27\", Blank Schedule Type Limits Name input -- will not be validated.\n   ** Warning ** ProcessScheduleInput: Schedule:Year=\"SCHEDULE RULESET 28\", Blank Schedule Type Limits Name input -- will not be validated.\n   ** Warning ** ProcessScheduleInput: Schedule:Year=\"SCHEDULE RULESET 29\", Blank Schedule Type Limits Name input -- will not be validated.\n   ** Warning ** ProcessScheduleInput: Schedule:Year=\"SCHEDULE RULESET 3\", Blank Schedule Type Limits Name input -- will not be validated.\n   ** Warning ** ProcessScheduleInput: Schedule:Year=\"SCHEDULE RULESET 30\", Blank Schedule Type Limits Name input -- will not be validated.\n   ** Warning ** ProcessScheduleInput: Schedule:Year=\"SCHEDULE RULESET 31\", Blank Schedule Type Limits Name input -- will not be validated.\n   ** Warning ** ProcessScheduleInput: Schedule:Year=\"SCHEDULE RULESET 32\", Blank Schedule Type Limits Name input -- will not be validated.\n   ** Warning ** ProcessScheduleInput: Schedule:Year=\"SCHEDULE RULESET 33\", Blank Schedule Type Limits Name input -- will not be validated.\n   ** Warning ** ProcessScheduleInput: Schedule:Year=\"SCHEDULE RULESET 34\", Blank Schedule Type Limits Name input -- will not be validated.\n   ** Warning ** ProcessScheduleInput: Schedule:Year=\"SCHEDULE RULESET 35\", Blank Schedule Type Limits Name input -- will not be validated.\n   ** Warning ** ProcessScheduleInput: Schedule:Year=\"SCHEDULE RULESET 36\", Blank Schedule Type Limits Name input -- will not be validated.\n   ** Warning ** ProcessScheduleInput: Schedule:Year=\"SCHEDULE RULESET 37\", Blank Schedule Type Limits Name input -- will not be validated.\n   ** Warning ** ProcessScheduleInput: Schedule:Year=\"SCHEDULE RULESET 38\", Blank Schedule Type Limits Name input -- will not be validated.\n   ** Warning ** ProcessScheduleInput: Schedule:Year=\"SCHEDULE RULESET 39\", Blank Schedule Type Limits Name input -- will not be validated.\n   ** Warning ** ProcessScheduleInput: Schedule:Year=\"SCHEDULE RULESET 4\", Blank Schedule Type Limits Name input -- will not be validated.\n   ** Warning ** ProcessScheduleInput: Schedule:Year=\"SCHEDULE RULESET 40\", Blank Schedule Type Limits Name input -- will not be validated.\n   ** Warning ** ProcessScheduleInput: Schedule:Year=\"SCHEDULE RULESET 41\", Blank Schedule Type Limits Name input -- will not be validated.\n   ** Warning ** ProcessScheduleInput: Schedule:Year=\"SCHEDULE RULESET 42\", Blank Schedule Type Limits Name input -- will not be validated.\n   ** Warning ** ProcessScheduleInput: Schedule:Year=\"SCHEDULE RULESET 43\", Blank Schedule Type Limits Name input -- will not be validated.\n   ** Warning ** ProcessScheduleInput: Schedule:Year=\"SCHEDULE RULESET 44\", Blank Schedule Type Limits Name input -- will not be validated.\n   ** Warning ** ProcessScheduleInput: Schedule:Year=\"SCHEDULE RULESET 45\", Blank Schedule Type Limits Name input -- will not be validated.\n   ** Warning ** ProcessScheduleInput: Schedule:Year=\"SCHEDULE RULESET 46\", Blank Schedule Type Limits Name input -- will not be validated.\n   ** Warning ** ProcessScheduleInput: Schedule:Year=\"SCHEDULE RULESET 47\", Blank Schedule Type Limits Name input -- will not be validated.\n   ** Warning ** ProcessScheduleInput: Schedule:Year=\"SCHEDULE RULESET 48\", Blank Schedule Type Limits Name input -- will not be validated.\n   ** Warning ** ProcessScheduleInput: Schedule:Year=\"SCHEDULE RULESET 49\", Blank Schedule Type Limits Name input -- will not be validated.\n   ** Warning ** ProcessScheduleInput: Schedule:Year=\"SCHEDULE RULESET 5\", Blank Schedule Type Limits Name input -- will not be validated.\n   ** Warning ** ProcessScheduleInput: Schedule:Year=\"SCHEDULE RULESET 50\", Blank Schedule Type Limits Name input -- will not be validated.\n   ** Warning ** ProcessScheduleInput: Schedule:Year=\"SCHEDULE RULESET 51\", Blank Schedule Type Limits Name input -- will not be validated.\n   ** Warning ** ProcessScheduleInput: Schedule:Year=\"SCHEDULE RULESET 52\", Blank Schedule Type Limits Name input -- will not be validated.\n   ** Warning ** ProcessScheduleInput: Schedule:Year=\"SCHEDULE RULESET 53\", Blank Schedule Type Limits Name input -- will not be validated.\n   ** Warning ** ProcessScheduleInput: Schedule:Year=\"SCHEDULE RULESET 54\", Blank Schedule Type Limits Name input -- will not be validated.\n   ** Warning ** ProcessScheduleInput: Schedule:Year=\"SCHEDULE RULESET 55\", Blank Schedule Type Limits Name input -- will not be validated.\n   ** Warning ** ProcessScheduleInput: Schedule:Year=\"SCHEDULE RULESET 56\", Blank Schedule Type Limits Name input -- will not be validated.\n   ** Warning ** ProcessScheduleInput: Schedule:Year=\"SCHEDULE RULESET 57\", Blank Schedule Type Limits Name input -- will not be validated.\n   ** Warning ** ProcessScheduleInput: Schedule:Year=\"SCHEDULE RULESET 58\", Blank Schedule Type Limits Name input -- will not be validated.\n   ** Warning ** ProcessScheduleInput: Schedule:Year=\"SCHEDULE RULESET 59\", Blank Schedule Type Limits Name input -- will not be validated.\n   ** Warning ** ProcessScheduleInput: Schedule:Year=\"SCHEDULE RULESET 6\", Blank Schedule Type Limits Name input -- will not be validated.\n   ** Warning ** ProcessScheduleInput: Schedule:Year=\"SCHEDULE RULESET 60\", Blank Schedule Type Limits Name input -- will not be validated.\n   ** Warning ** ProcessScheduleInput: Schedule:Year=\"SCHEDULE RULESET 61\", Blank Schedule Type Limits Name input -- will not be validated.\n   ** Warning ** ProcessScheduleInput: Schedule:Year=\"SCHEDULE RULESET 62\", Blank Schedule Type Limits Name input -- will not be validated.\n   ** Warning ** ProcessScheduleInput: Schedule:Year=\"SCHEDULE RULESET 63\", Blank Schedule Type Limits Name input -- will not be validated.\n   ** Warning ** ProcessScheduleInput: Schedule:Year=\"SCHEDULE RULESET 64\", Blank Schedule Type Limits Name input -- will not be validated.\n   ** Warning ** ProcessScheduleInput: Schedule:Year=\"SCHEDULE RULESET 65\", Blank Schedule Type Limits Name input -- will not be validated.\n   ** Warning ** ProcessScheduleInput: Schedule:Year=\"SCHEDULE RULESET 66\", Blank Schedule Type Limits Name input -- will not be validated.\n   ** Warning ** ProcessScheduleInput: Schedule:Year=\"SCHEDULE RULESET 67\", Blank Schedule Type Limits Name input -- will not be validated.\n   ** Warning ** ProcessScheduleInput: Schedule:Year=\"SCHEDULE RULESET 68\", Blank Schedule Type Limits Name input -- will not be validated.\n   ** Warning ** ProcessScheduleInput: Schedule:Year=\"SCHEDULE RULESET 69\", Blank Schedule Type Limits Name input -- will not be validated.\n   ** Warning ** ProcessScheduleInput: Schedule:Year=\"SCHEDULE RULESET 7\", Blank Schedule Type Limits Name input -- will not be validated.\n   ** Warning ** ProcessScheduleInput: Schedule:Year=\"SCHEDULE RULESET 70\", Blank Schedule Type Limits Name input -- will not be validated.\n   ** Warning ** ProcessScheduleInput: Schedule:Year=\"SCHEDULE RULESET 71\", Blank Schedule Type Limits Name input -- will not be validated.\n   ** Warning ** ProcessScheduleInput: Schedule:Year=\"SCHEDULE RULESET 72\", Blank Schedule Type Limits Name input -- will not be validated.\n   ** Warning ** ProcessScheduleInput: Schedule:Year=\"SCHEDULE RULESET 73\", Blank Schedule Type Limits Name input -- will not be validated.\n   ** Warning ** ProcessScheduleInput: Schedule:Year=\"SCHEDULE RULESET 74\", Blank Schedule Type Limits Name input -- will not be validated.\n   ** Warning ** ProcessScheduleInput: Schedule:Year=\"SCHEDULE RULESET 8\", Blank Schedule Type Limits Name input -- will not be validated.\n   ** Warning ** ProcessScheduleInput: Schedule:Year=\"SCHEDULE RULESET 9\", Blank Schedule Type Limits Name input -- will not be validated.\n   ** Warning ** ProcessScheduleInput: Schedule:Constant=\"ALWAYS ON CONTINUOUS\", Blank Schedule Type Limits Name input -- will not be validated.\n   ** Warning ** CheckUsedConstructions: There are 17 nominally unused constructions in input.\n   **   ~~~   ** For explicit details on each unused construction, use Output:Diagnostics,DisplayExtraWarnings;\n   ** Warning ** GetInternalHeatGains: People Combination of ZoneList and Object Name generate a name too long.\n   **   ~~~   ** Object Name=\"SPACE FUNCTION CONFERENCE/MEETING/MULTI-PURPOSE ROOM PEOPLE\".\n   **   ~~~   ** ZoneList/Zone Name=\"SP-OFFICE SYS-3 FLR-1 SCH-C HPLCMT-SOUTH ZN\".\n   **   ~~~   ** Item length=[102] > Maximum Length=[100]. You may need to shorten the names.\n   **   ~~~   ** Shortening the Object Name by [3] characters will assure uniqueness for this ZoneList.\n   **   ~~~   ** name that will be used (may be needed in reporting)=\"SP-OFFICE SYS-3 FLR-1 SCH-C HPLCMT-SOUTH ZN SPACE FUNCTION CONFERENCE/MEETING/MULTI-PURPOSE ROOM PEOPLE\".\n   ** Warning ** GetInternalHeatGains: People Combination of ZoneList and Object Name generate a name too long.\n   **   ~~~   ** Object Name=\"SPACE FUNCTION CORRIDOR/TRANSITION AREA OTHER-SCH-G PEOPLE\".\n   **   ~~~   ** ZoneList/Zone Name=\"SP-G CORRIDOR SYS-1 FLR-1 SCH-G HPLCMT-EAST ZN\".\n   **   ~~~   ** Item length=[104] > Maximum Length=[100]. You may need to shorten the names.\n   **   ~~~   ** Shortening the Object Name by [5] characters will assure uniqueness for this ZoneList.\n   **   ~~~   ** name that will be used (may be needed in reporting)=\"SP-G CORRIDOR SYS-1 FLR-1 SCH-G HPLCMT-EAST ZN SPACE FUNCTION CORRIDOR/TRANSITION AREA OTHER-SCH-G PEOPLE\".\n   ** Warning ** GetInternalHeatGains: People Combination of ZoneList and Object Name generate a name too long.\n   **   ~~~   ** Object Name=\"SPACE FUNCTION CORRIDOR/TRANSITION AREA OTHER-SCH-G PEOPLE\".\n   **   ~~~   ** ZoneList/Zone Name=\"SP-M CORRIDOR SYS-1 FLR-2 SCH-G HPLCMT-EAST ZN\".\n   **   ~~~   ** Item length=[104] > Maximum Length=[100]. You may need to shorten the names.\n   **   ~~~   ** Shortening the Object Name by [5] characters will assure uniqueness for this ZoneList.\n   **   ~~~   ** name that will be used (may be needed in reporting)=\"SP-M CORRIDOR SYS-1 FLR-2 SCH-G HPLCMT-EAST ZN SPACE FUNCTION CORRIDOR/TRANSITION AREA OTHER-SCH-G PEOPLE\".\n   ** Warning ** GetInternalHeatGains: People Combination of ZoneList and Object Name generate a name too long.\n   **   ~~~   ** Object Name=\"SPACE FUNCTION CORRIDOR/TRANSITION AREA OTHER-SCH-G PEOPLE\".\n   **   ~~~   ** ZoneList/Zone Name=\"SP-T CORRIDOR SYS-1 FLR-3 SCH-G HPLCMT-WEST ZN\".\n   **   ~~~   ** Item length=[104] > Maximum Length=[100]. You may need to shorten the names.\n   **   ~~~   ** Shortening the Object Name by [5] characters will assure uniqueness for this ZoneList.\n   **   ~~~   ** name that will be used (may be needed in reporting)=\"SP-T CORRIDOR SYS-1 FLR-3 SCH-G HPLCMT-WEST ZN SPACE FUNCTION CORRIDOR/TRANSITION AREA OTHER-SCH-G PEOPLE\".\n   ** Warning ** GetInternalHeatGains: Lights Combination of ZoneList and Object Name generate a name too long.\n   **   ~~~   ** Object Name=\"SPACE FUNCTION CONFERENCE/MEETING/MULTI-PURPOSE ROOM LIGHTS\".\n   **   ~~~   ** ZoneList/Zone Name=\"SP-OFFICE SYS-3 FLR-1 SCH-C HPLCMT-SOUTH ZN\".\n   **   ~~~   ** Item length=[102] > Maximum Length=[100]. You may need to shorten the names.\n   **   ~~~   ** Shortening the Object Name by [3] characters will assure uniqueness for this ZoneList.\n   **   ~~~   ** name that will be used (may be needed in reporting)=\"SP-OFFICE SYS-3 FLR-1 SCH-C HPLCMT-SOUTH ZN SPACE FUNCTION CONFERENCE/MEETING/MULTI-PURPOSE ROOM LIGHTS\".\n   ** Warning ** GetInternalHeatGains: Lights Combination of ZoneList and Object Name generate a name too long.\n   **   ~~~   ** Object Name=\"SPACE FUNCTION CORRIDOR/TRANSITION AREA OTHER-SCH-G LIGHTS\".\n   **   ~~~   ** ZoneList/Zone Name=\"SP-G CORRIDOR SYS-1 FLR-1 SCH-G HPLCMT-EAST ZN\".\n   **   ~~~   ** Item length=[104] > Maximum Length=[100]. You may need to shorten the names.\n   **   ~~~   ** Shortening the Object Name by [5] characters will assure uniqueness for this ZoneList.\n   **   ~~~   ** name that will be used (may be needed in reporting)=\"SP-G CORRIDOR SYS-1 FLR-1 SCH-G HPLCMT-EAST ZN SPACE FUNCTION CORRIDOR/TRANSITION AREA OTHER-SCH-G LIGHTS\".\n   ** Warning ** GetInternalHeatGains: Lights Combination of ZoneList and Object Name generate a name too long.\n   **   ~~~   ** Object Name=\"SPACE FUNCTION CORRIDOR/TRANSITION AREA OTHER-SCH-G LIGHTS\".\n   **   ~~~   ** ZoneList/Zone Name=\"SP-M CORRIDOR SYS-1 FLR-2 SCH-G HPLCMT-EAST ZN\".\n   **   ~~~   ** Item length=[104] > Maximum Length=[100]. You may need to shorten the names.\n   **   ~~~   ** Shortening the Object Name by [5] characters will assure uniqueness for this ZoneList.\n   **   ~~~   ** name that will be used (may be needed in reporting)=\"SP-M CORRIDOR SYS-1 FLR-2 SCH-G HPLCMT-EAST ZN SPACE FUNCTION CORRIDOR/TRANSITION AREA OTHER-SCH-G LIGHTS\".\n   ** Warning ** GetInternalHeatGains: Lights Combination of ZoneList and Object Name generate a name too long.\n   **   ~~~   ** Object Name=\"SPACE FUNCTION CORRIDOR/TRANSITION AREA OTHER-SCH-G LIGHTS\".\n   **   ~~~   ** ZoneList/Zone Name=\"SP-T CORRIDOR SYS-1 FLR-3 SCH-G HPLCMT-WEST ZN\".\n   **   ~~~   ** Item length=[104] > Maximum Length=[100]. You may need to shorten the names.\n   **   ~~~   ** Shortening the Object Name by [5] characters will assure uniqueness for this ZoneList.\n   **   ~~~   ** name that will be used (may be needed in reporting)=\"SP-T CORRIDOR SYS-1 FLR-3 SCH-G HPLCMT-WEST ZN SPACE FUNCTION CORRIDOR/TRANSITION AREA OTHER-SCH-G LIGHTS\".\n   ** Warning ** GetInternalHeatGains: ElectricEquipment Combination of ZoneList and Object Name generate a name too long.\n   **   ~~~   ** Object Name=\"SPACE FUNCTION CONFERENCE/MEETING/MULTI-PURPOSE ROOM ELEC EQUIP\".\n   **   ~~~   ** ZoneList/Zone Name=\"SP-OFFICE SYS-3 FLR-1 SCH-C HPLCMT-SOUTH ZN\".\n   **   ~~~   ** Item length=[106] > Maximum Length=[100]. You may need to shorten the names.\n   **   ~~~   ** Shortening the Object Name by [7] characters will assure uniqueness for this ZoneList.\n   **   ~~~   ** name that will be used (may be needed in reporting)=\"SP-OFFICE SYS-3 FLR-1 SCH-C HPLCMT-SOUTH ZN SPACE FUNCTION CONFERENCE/MEETING/MULTI-PURPOSE ROOM ELEC EQUIP\".\n   ************* Beginning System Sizing Calculations\n   ** Warning ** GetDXCoils: Coil:Cooling:DX:SingleSpeed=\"COIL COOLING DX SINGLE SPEED 6 8KBTU/HR 10.8EER\", invalid\n   **   ~~~   ** ...Part Load Fraction Correlation Curve Name = DXCOOL-NECB2011-REF-COOLPLFFPLR has out of range value.\n   **   ~~~   ** ...Curve maximum must be <= 1.0, curve max at PLR = 0.99 is 1.015\n   **   ~~~   ** ...Setting curve maximum to 1.0 and simulation continues.\n   ************* Beginning Plant Sizing Calculations\n   ** Warning ** The Standard Ratings is calculated for Coil:Cooling:DX:SingleSpeed = COIL COOLING DX SINGLE SPEED 6 8KBTU/HR 10.8EER but not at the AHRI test condition due to curve out of bound.\n   **   ~~~   **  Review the Standard Ratings calculations in the Engineering Reference for this coil type. Also, use Output:Diagnostics, DisplayExtraWarnings for further guidance.\n   ** Warning ** The Standard Ratings is calculated for Coil:Cooling:DX:SingleSpeed = COIL COOLING DX SINGLE SPEED 2 7KBTU/HR 10.9EER but not at the AHRI test condition due to curve out of bound.\n   **   ~~~   **  Review the Standard Ratings calculations in the Engineering Reference for this coil type. Also, use Output:Diagnostics, DisplayExtraWarnings for further guidance.\n   ** Warning ** The Standard Ratings is calculated for Coil:Cooling:DX:SingleSpeed = COIL COOLING DX SINGLE SPEED 3 7KBTU/HR 11.0EER but not at the AHRI test condition due to curve out of bound.\n   **   ~~~   **  Review the Standard Ratings calculations in the Engineering Reference for this coil type. Also, use Output:Diagnostics, DisplayExtraWarnings for further guidance.\n   ** Warning ** The Standard Ratings is calculated for Coil:Cooling:DX:SingleSpeed = COIL COOLING DX SINGLE SPEED 4 17KBTU/HR 9.3EER but not at the AHRI test condition due to curve out of bound.\n   **   ~~~   **  Review the Standard Ratings calculations in the Engineering Reference for this coil type. Also, use Output:Diagnostics, DisplayExtraWarnings for further guidance.\n   ** Warning ** The Standard Ratings is calculated for Coil:Cooling:DX:SingleSpeed = COIL COOLING DX SINGLE SPEED 5 18KBTU/HR 9.3EER but not at the AHRI test condition due to curve out of bound.\n   **   ~~~   **  Review the Standard Ratings calculations in the Engineering Reference for this coil type. Also, use Output:Diagnostics, DisplayExtraWarnings for further guidance.\n   ** Warning ** The Standard Ratings is calculated for Coil:Cooling:DX:SingleSpeed = COIL COOLING DX SINGLE SPEED 7 11KBTU/HR 10.1EER but not at the AHRI test condition due to curve out of bound.\n   **   ~~~   **  Review the Standard Ratings calculations in the Engineering Reference for this coil type. Also, use Output:Diagnostics, DisplayExtraWarnings for further guidance.\n   ** Warning ** The Standard Ratings is calculated for Coil:Cooling:DX:SingleSpeed = COIL COOLING DX SINGLE SPEED 8 11KBTU/HR 10.1EER but not at the AHRI test condition due to curve out of bound.\n   **   ~~~   **  Review the Standard Ratings calculations in the Engineering Reference for this coil type. Also, use Output:Diagnostics, DisplayExtraWarnings for further guidance.\n   ** Warning ** The Standard Ratings is calculated for Coil:Cooling:DX:SingleSpeed = COIL COOLING DX SINGLE SPEED 9 18KBTU/HR 9.3EER but not at the AHRI test condition due to curve out of bound.\n   **   ~~~   **  Review the Standard Ratings calculations in the Engineering Reference for this coil type. Also, use Output:Diagnostics, DisplayExtraWarnings for further guidance.\n   ** Warning ** The Standard Ratings is calculated for Coil:Cooling:DX:SingleSpeed = COIL COOLING DX SINGLE SPEED 14 9KBTU/HR 10.6EER but not at the AHRI test condition due to curve out of bound.\n   **   ~~~   **  Review the Standard Ratings calculations in the Engineering Reference for this coil type. Also, use Output:Diagnostics, DisplayExtraWarnings for further guidance.\n   ** Warning ** The Standard Ratings is calculated for Coil:Cooling:DX:SingleSpeed = COIL COOLING DX SINGLE SPEED 10 8KBTU/HR 10.7EER but not at the AHRI test condition due to curve out of bound.\n   **   ~~~   **  Review the Standard Ratings calculations in the Engineering Reference for this coil type. Also, use Output:Diagnostics, DisplayExtraWarnings for further guidance.\n   ** Warning ** The Standard Ratings is calculated for Coil:Cooling:DX:SingleSpeed = COIL COOLING DX SINGLE SPEED 11 8KBTU/HR 10.8EER but not at the AHRI test condition due to curve out of bound.\n   **   ~~~   **  Review the Standard Ratings calculations in the Engineering Reference for this coil type. Also, use Output:Diagnostics, DisplayExtraWarnings for further guidance.\n   ** Warning ** The Standard Ratings is calculated for Coil:Cooling:DX:SingleSpeed = COIL COOLING DX SINGLE SPEED 12 19KBTU/HR 9.3EER but not at the AHRI test condition due to curve out of bound.\n   **   ~~~   **  Review the Standard Ratings calculations in the Engineering Reference for this coil type. Also, use Output:Diagnostics, DisplayExtraWarnings for further guidance.\n   ** Warning ** The Standard Ratings is calculated for Coil:Cooling:DX:SingleSpeed = COIL COOLING DX SINGLE SPEED 13 19KBTU/HR 9.3EER but not at the AHRI test condition due to curve out of bound.\n   **   ~~~   **  Review the Standard Ratings calculations in the Engineering Reference for this coil type. Also, use Output:Diagnostics, DisplayExtraWarnings for further guidance.\n   ** Warning ** The Standard Ratings is calculated for Coil:Cooling:DX:SingleSpeed = COIL COOLING DX SINGLE SPEED 15 12KBTU/HR 9.9EER but not at the AHRI test condition due to curve out of bound.\n   **   ~~~   **  Review the Standard Ratings calculations in the Engineering Reference for this coil type. Also, use Output:Diagnostics, DisplayExtraWarnings for further guidance.\n   ** Warning ** The Standard Ratings is calculated for Coil:Cooling:DX:SingleSpeed = COIL COOLING DX SINGLE SPEED 16 12KBTU/HR 9.9EER but not at the AHRI test condition due to curve out of bound.\n   **   ~~~   **  Review the Standard Ratings calculations in the Engineering Reference for this coil type. Also, use Output:Diagnostics, DisplayExtraWarnings for further guidance.\n   ** Warning ** The Standard Ratings is calculated for Coil:Cooling:DX:SingleSpeed = COIL COOLING DX SINGLE SPEED 17 19KBTU/HR 9.3EER but not at the AHRI test condition due to curve out of bound.\n   **   ~~~   **  Review the Standard Ratings calculations in the Engineering Reference for this coil type. Also, use Output:Diagnostics, DisplayExtraWarnings for further guidance.\n   ** Warning ** The Standard Ratings is calculated for Coil:Cooling:DX:SingleSpeed = COIL COOLING DX SINGLE SPEED 18 21KBTU/HR 9.3EER but not at the AHRI test condition due to curve out of bound.\n   **   ~~~   **  Review the Standard Ratings calculations in the Engineering Reference for this coil type. Also, use Output:Diagnostics, DisplayExtraWarnings for further guidance.\n   ** Warning ** The Standard Ratings is calculated for Coil:Cooling:DX:SingleSpeed = COIL COOLING DX SINGLE SPEED 23 15KBTU/HR 9.3EER but not at the AHRI test condition due to curve out of bound.\n   **   ~~~   **  Review the Standard Ratings calculations in the Engineering Reference for this coil type. Also, use Output:Diagnostics, DisplayExtraWarnings for further guidance.\n   ** Warning ** The Standard Ratings is calculated for Coil:Cooling:DX:SingleSpeed = COIL COOLING DX SINGLE SPEED 19 14KBTU/HR 9.5EER but not at the AHRI test condition due to curve out of bound.\n   **   ~~~   **  Review the Standard Ratings calculations in the Engineering Reference for this coil type. Also, use Output:Diagnostics, DisplayExtraWarnings for further guidance.\n   ** Warning ** The Standard Ratings is calculated for Coil:Cooling:DX:SingleSpeed = COIL COOLING DX SINGLE SPEED 20 14KBTU/HR 9.5EER but not at the AHRI test condition due to curve out of bound.\n   **   ~~~   **  Review the Standard Ratings calculations in the Engineering Reference for this coil type. Also, use Output:Diagnostics, DisplayExtraWarnings for further guidance.\n   ** Warning ** The Standard Ratings is calculated for Coil:Cooling:DX:SingleSpeed = COIL COOLING DX SINGLE SPEED 21 23KBTU/HR 9.3EER but not at the AHRI test condition due to curve out of bound.\n   **   ~~~   **  Review the Standard Ratings calculations in the Engineering Reference for this coil type. Also, use Output:Diagnostics, DisplayExtraWarnings for further guidance.\n   ** Warning ** The Standard Ratings is calculated for Coil:Cooling:DX:SingleSpeed = COIL COOLING DX SINGLE SPEED 22 24KBTU/HR 9.3EER but not at the AHRI test condition due to curve out of bound.\n   **   ~~~   **  Review the Standard Ratings calculations in the Engineering Reference for this coil type. Also, use Output:Diagnostics, DisplayExtraWarnings for further guidance.\n   ** Warning ** The Standard Ratings is calculated for Coil:Cooling:DX:SingleSpeed = COIL COOLING DX SINGLE SPEED 24 19KBTU/HR 9.3EER but not at the AHRI test condition due to curve out of bound.\n   **   ~~~   **  Review the Standard Ratings calculations in the Engineering Reference for this coil type. Also, use Output:Diagnostics, DisplayExtraWarnings for further guidance.\n   ** Warning ** The Standard Ratings is calculated for Coil:Cooling:DX:SingleSpeed = COIL COOLING DX SINGLE SPEED 25 19KBTU/HR 9.3EER but not at the AHRI test condition due to curve out of bound.\n   **   ~~~   **  Review the Standard Ratings calculations in the Engineering Reference for this coil type. Also, use Output:Diagnostics, DisplayExtraWarnings for further guidance.\n   ** Warning ** The Standard Ratings is calculated for Coil:Cooling:DX:SingleSpeed = COIL COOLING DX SINGLE SPEED 26 23KBTU/HR 9.3EER but not at the AHRI test condition due to curve out of bound.\n   **   ~~~   **  Review the Standard Ratings calculations in the Engineering Reference for this coil type. Also, use Output:Diagnostics, DisplayExtraWarnings for further guidance.\n   ** Warning ** The Standard Ratings is calculated for Coil:Cooling:DX:SingleSpeed = COIL COOLING DX SINGLE SPEED 27 26KBTU/HR 9.3EER but not at the AHRI test condition due to curve out of bound.\n   **   ~~~   **  Review the Standard Ratings calculations in the Engineering Reference for this coil type. Also, use Output:Diagnostics, DisplayExtraWarnings for further guidance.\n   ** Warning ** GetVarSpeedCoilInput: COIL:HEATING:DX:VARIABLESPEED=\"SYS_1_MAKE-UP AIR UNIT CCASHP DX HTG COIL\", \n   **   ~~~   ** ...Minimum Outdoor Dry-Bulb Temperature for Compressor Operation = 0.0 for defrost control = TIMED.\n   ** Warning ** GetVarSpeedCoilInput: COIL:HEATING:DX:VARIABLESPEED=\"SYS_3_PSZ SP-OFFICE SYS-3 FLR-1 SCH-C HPLCMT-SOUTH ZN CCASHP DX HTG COIL\", \n   **   ~~~   ** ...Minimum Outdoor Dry-Bulb Temperature for Compressor Operation = 0.0 for defrost control = TIMED.\n   ** Warning ** SizePlantLoop: Calculated Plant Sizing Design Volume Flow Rate=[0.00] is too small. Set to 0.0\n   **   ~~~   ** ..occurs for PlantLoop=HOT WATER LOOP\n   ** Warning ** SizePump: Calculated Pump Nominal Volume Flow Rate=[0.00] is too small. Set to 0.0\n   **   ~~~   ** ..occurs for Pump=PUMP VARIABLE SPEED 1\n   ** Warning ** Check input. Pump nominal power or motor efficiency is set to 0, for pump=PUMP VARIABLE SPEED 1\n   ** Warning ** Check input. Pump nominal flow rate is set or calculated = 0, for pump=PUMP VARIABLE SPEED 1\n   ** Warning ** Output:Meter: invalid Key Name=\"DISTRICTCOOLING:FACILITY\" - not found.\n   ** Warning ** Output:Meter: invalid Key Name=\"DISTRICTHEATING:FACILITY\" - not found.\n   ** Warning ** Output:Meter:MeterFileOnly requested for \"Electricity:Facility\" (TimeStep), already on \"Output:Meter\". Will report to both eplusout.eso and eplusout.mtr\n   ************* Testing Individual Branch Integrity\n   ************* All Branches passed integrity testing\n   ************* Testing Individual Supply Air Path Integrity\n   ************* All Supply Air Paths passed integrity testing\n   ************* Testing Individual Return Air Path Integrity\n   ************* All Return Air Paths passed integrity testing\n   ** Warning ** Potential Node Connection Error for object ZONEHVAC:BASEBOARD:CONVECTIVE:WATER, name=ZONE HVAC BASEBOARD CONVECTIVE WATER 1\n   **   ~~~   **   Node Types are still UNDEFINED -- See Branch/Node Details file for further information\n   **   ~~~   **   Inlet Node : NODE 54\n   **   ~~~   **   Outlet Node: NODE 55\n   ** Warning ** Potential Node Connection Error for object ZONEHVAC:BASEBOARD:CONVECTIVE:WATER, name=ZONE HVAC BASEBOARD CONVECTIVE WATER 2\n   **   ~~~   **   Node Types are still UNDEFINED -- See Branch/Node Details file for further information\n   **   ~~~   **   Inlet Node : NODE 59\n   **   ~~~   **   Outlet Node: NODE 60\n   ** Warning ** Potential Node Connection Error for object ZONEHVAC:BASEBOARD:CONVECTIVE:WATER, name=ZONE HVAC BASEBOARD CONVECTIVE WATER 3\n   **   ~~~   **   Node Types are still UNDEFINED -- See Branch/Node Details file for further information\n   **   ~~~   **   Inlet Node : NODE 65\n   **   ~~~   **   Outlet Node: NODE 66\n   ** Warning ** Potential Node Connection Error for object ZONEHVAC:BASEBOARD:CONVECTIVE:WATER, name=ZONE HVAC BASEBOARD CONVECTIVE WATER 4\n   **   ~~~   **   Node Types are still UNDEFINED -- See Branch/Node Details file for further information\n   **   ~~~   **   Inlet Node : NODE 71\n   **   ~~~   **   Outlet Node: NODE 72\n   ** Warning ** Potential Node Connection Error for object ZONEHVAC:BASEBOARD:CONVECTIVE:WATER, name=ZONE HVAC BASEBOARD CONVECTIVE WATER 5\n   **   ~~~   **   Node Types are still UNDEFINED -- See Branch/Node Details file for further information\n   **   ~~~   **   Inlet Node : NODE 77\n   **   ~~~   **   Outlet Node: NODE 78\n   ** Warning ** Potential Node Connection Error for object ZONEHVAC:BASEBOARD:CONVECTIVE:WATER, name=ZONE HVAC BASEBOARD CONVECTIVE WATER 6\n   **   ~~~   **   Node Types are still UNDEFINED -- See Branch/Node Details file for further information\n   **   ~~~   **   Inlet Node : NODE 83\n   **   ~~~   **   Outlet Node: NODE 84\n   ** Warning ** Potential Node Connection Error for object ZONEHVAC:BASEBOARD:CONVECTIVE:WATER, name=ZONE HVAC BASEBOARD CONVECTIVE WATER 7\n   **   ~~~   **   Node Types are still UNDEFINED -- See Branch/Node Details file for further information\n   **   ~~~   **   Inlet Node : NODE 89\n   **   ~~~   **   Outlet Node: NODE 90\n   ** Warning ** Potential Node Connection Error for object ZONEHVAC:BASEBOARD:CONVECTIVE:WATER, name=ZONE HVAC BASEBOARD CONVECTIVE WATER 8\n   **   ~~~   **   Node Types are still UNDEFINED -- See Branch/Node Details file for further information\n   **   ~~~   **   Inlet Node : NODE 95\n   **   ~~~   **   Outlet Node: NODE 96\n   ** Warning ** Potential Node Connection Error for object ZONEHVAC:BASEBOARD:CONVECTIVE:WATER, name=ZONE HVAC BASEBOARD CONVECTIVE WATER 9\n   **   ~~~   **   Node Types are still UNDEFINED -- See Branch/Node Details file for further information\n   **   ~~~   **   Inlet Node : NODE 101\n   **   ~~~   **   Outlet Node: NODE 102\n   ** Warning ** Potential Node Connection Error for object ZONEHVAC:BASEBOARD:CONVECTIVE:WATER, name=ZONE HVAC BASEBOARD CONVECTIVE WATER 10\n   **   ~~~   **   Node Types are still UNDEFINED -- See Branch/Node Details file for further information\n   **   ~~~   **   Inlet Node : NODE 107\n   **   ~~~   **   Outlet Node: NODE 108\n   ** Warning ** Potential Node Connection Error for object ZONEHVAC:BASEBOARD:CONVECTIVE:WATER, name=ZONE HVAC BASEBOARD CONVECTIVE WATER 11\n   **   ~~~   **   Node Types are still UNDEFINED -- See Branch/Node Details file for further information\n   **   ~~~   **   Inlet Node : NODE 113\n   **   ~~~   **   Outlet Node: NODE 114\n   ** Warning ** Potential Node Connection Error for object ZONEHVAC:BASEBOARD:CONVECTIVE:WATER, name=ZONE HVAC BASEBOARD CONVECTIVE WATER 12\n   **   ~~~   **   Node Types are still UNDEFINED -- See Branch/Node Details file for further information\n   **   ~~~   **   Inlet Node : NODE 119\n   **   ~~~   **   Outlet Node: NODE 120\n   ** Warning ** Potential Node Connection Error for object ZONEHVAC:BASEBOARD:CONVECTIVE:WATER, name=ZONE HVAC BASEBOARD CONVECTIVE WATER 13\n   **   ~~~   **   Node Types are still UNDEFINED -- See Branch/Node Details file for further information\n   **   ~~~   **   Inlet Node : NODE 125\n   **   ~~~   **   Outlet Node: NODE 126\n   ** Warning ** Potential Node Connection Error for object ZONEHVAC:BASEBOARD:CONVECTIVE:WATER, name=ZONE HVAC BASEBOARD CONVECTIVE WATER 14\n   **   ~~~   **   Node Types are still UNDEFINED -- See Branch/Node Details file for further information\n   **   ~~~   **   Inlet Node : NODE 131\n   **   ~~~   **   Outlet Node: NODE 132\n   ** Warning ** Potential Node Connection Error for object ZONEHVAC:BASEBOARD:CONVECTIVE:WATER, name=ZONE HVAC BASEBOARD CONVECTIVE WATER 15\n   **   ~~~   **   Node Types are still UNDEFINED -- See Branch/Node Details file for further information\n   **   ~~~   **   Inlet Node : NODE 137\n   **   ~~~   **   Outlet Node: NODE 138\n   ** Warning ** Potential Node Connection Error for object ZONEHVAC:BASEBOARD:CONVECTIVE:WATER, name=ZONE HVAC BASEBOARD CONVECTIVE WATER 16\n   **   ~~~   **   Node Types are still UNDEFINED -- See Branch/Node Details file for further information\n   **   ~~~   **   Inlet Node : NODE 143\n   **   ~~~   **   Outlet Node: NODE 144\n   ** Warning ** Potential Node Connection Error for object ZONEHVAC:BASEBOARD:CONVECTIVE:WATER, name=ZONE HVAC BASEBOARD CONVECTIVE WATER 17\n   **   ~~~   **   Node Types are still UNDEFINED -- See Branch/Node Details file for further information\n   **   ~~~   **   Inlet Node : NODE 149\n   **   ~~~   **   Outlet Node: NODE 150\n   ** Warning ** Potential Node Connection Error for object ZONEHVAC:BASEBOARD:CONVECTIVE:WATER, name=ZONE HVAC BASEBOARD CONVECTIVE WATER 18\n   **   ~~~   **   Node Types are still UNDEFINED -- See Branch/Node Details file for further information\n   **   ~~~   **   Inlet Node : NODE 155\n   **   ~~~   **   Outlet Node: NODE 156\n   ** Warning ** Potential Node Connection Error for object ZONEHVAC:BASEBOARD:CONVECTIVE:WATER, name=ZONE HVAC BASEBOARD CONVECTIVE WATER 19\n   **   ~~~   **   Node Types are still UNDEFINED -- See Branch/Node Details file for further information\n   **   ~~~   **   Inlet Node : NODE 161\n   **   ~~~   **   Outlet Node: NODE 162\n   ** Warning ** Potential Node Connection Error for object ZONEHVAC:BASEBOARD:CONVECTIVE:WATER, name=ZONE HVAC BASEBOARD CONVECTIVE WATER 20\n   **   ~~~   **   Node Types are still UNDEFINED -- See Branch/Node Details file for further information\n   **   ~~~   **   Inlet Node : NODE 167\n   **   ~~~   **   Outlet Node: NODE 168\n   ** Warning ** Potential Node Connection Error for object ZONEHVAC:BASEBOARD:CONVECTIVE:WATER, name=ZONE HVAC BASEBOARD CONVECTIVE WATER 21\n   **   ~~~   **   Node Types are still UNDEFINED -- See Branch/Node Details file for further information\n   **   ~~~   **   Inlet Node : NODE 173\n   **   ~~~   **   Outlet Node: NODE 174\n   ** Warning ** Potential Node Connection Error for object ZONEHVAC:BASEBOARD:CONVECTIVE:WATER, name=ZONE HVAC BASEBOARD CONVECTIVE WATER 22\n   **   ~~~   **   Node Types are still UNDEFINED -- See Branch/Node Details file for further information\n   **   ~~~   **   Inlet Node : NODE 179\n   **   ~~~   **   Outlet Node: NODE 180\n   ** Warning ** Potential Node Connection Error for object ZONEHVAC:BASEBOARD:CONVECTIVE:WATER, name=ZONE HVAC BASEBOARD CONVECTIVE WATER 23\n   **   ~~~   **   Node Types are still UNDEFINED -- See Branch/Node Details file for further information\n   **   ~~~   **   Inlet Node : NODE 185\n   **   ~~~   **   Outlet Node: NODE 186\n   ** Warning ** Potential Node Connection Error for object ZONEHVAC:BASEBOARD:CONVECTIVE:WATER, name=ZONE HVAC BASEBOARD CONVECTIVE WATER 24\n   **   ~~~   **   Node Types are still UNDEFINED -- See Branch/Node Details file for further information\n   **   ~~~   **   Inlet Node : NODE 191\n   **   ~~~   **   Outlet Node: NODE 192\n   ** Warning ** Potential Node Connection Error for object ZONEHVAC:BASEBOARD:CONVECTIVE:WATER, name=ZONE HVAC BASEBOARD CONVECTIVE WATER 25\n   **   ~~~   **   Node Types are still UNDEFINED -- See Branch/Node Details file for further information\n   **   ~~~   **   Inlet Node : NODE 197\n   **   ~~~   **   Outlet Node: NODE 198\n   ** Warning ** Potential Node Connection Error for object ZONEHVAC:BASEBOARD:CONVECTIVE:WATER, name=ZONE HVAC BASEBOARD CONVECTIVE WATER 26\n   **   ~~~   **   Node Types are still UNDEFINED -- See Branch/Node Details file for further information\n   **   ~~~   **   Inlet Node : NODE 203\n   **   ~~~   **   Outlet Node: NODE 204\n   ** Warning ** Potential Node Connection Error for object ZONEHVAC:BASEBOARD:CONVECTIVE:WATER, name=ZONE HVAC BASEBOARD CONVECTIVE WATER 27\n   **   ~~~   **   Node Types are still UNDEFINED -- See Branch/Node Details file for further information\n   **   ~~~   **   Inlet Node : NODE 218\n   **   ~~~   **   Outlet Node: NODE 219\n   ************* There were 27 node connection errors noted.\n   ************* Beginning Simulation\n   ** Warning ** Processing Monthly Tabular Reports: Variable names not valid for this simulation\n   **   ~~~   ** ...use Output:Diagnostics,DisplayExtraWarnings; to show more details on individual variables.\n   ** Warning ** GetInputEconomicsTariff: UtilityCost:Tariff=\"NONEOIL\" missing meter\n   **   ~~~   ** Meter referenced is not present due to a lack of equipment that uses that energy source/meter:\"FUELOIL#2:FACILITY\".\n   ** Warning ** CalcDoe2DXCoil: Coil:Cooling:DX:SingleSpeed \"COIL COOLING DX SINGLE SPEED 7 11KBTU/HR 10.1EER\" - Air-cooled condenser inlet dry-bulb temperature below 0 C. Outdoor dry-bulb temperature = -16.03\n   **   ~~~   **  ... Occurrence info = RUN PERIOD 1, 01/01 10:09 - 10:12\n   **   ~~~   ** ... Operation at low ambient temperatures may require special performance curves.\n   ** Warning ** CalcDoe2DXCoil: Coil:Cooling:DX:SingleSpeed \"COIL COOLING DX SINGLE SPEED 8 11KBTU/HR 10.1EER\" - Air-cooled condenser inlet dry-bulb temperature below 0 C. Outdoor dry-bulb temperature = -16.03\n   **   ~~~   **  ... Occurrence info = RUN PERIOD 1, 01/01 10:09 - 10:12\n   **   ~~~   ** ... Operation at low ambient temperatures may require special performance curves.\n   ** Warning ** CalcDoe2DXCoil: Coil:Cooling:DX:SingleSpeed \"COIL COOLING DX SINGLE SPEED 17 19KBTU/HR 9.3EER\" - Air-cooled condenser inlet dry-bulb temperature below 0 C. Outdoor dry-bulb temperature = -16.35\n   **   ~~~   **  ... Occurrence info = RUN PERIOD 1, 01/01 10:25 - 10:30\n   **   ~~~   ** ... Operation at low ambient temperatures may require special performance curves.\n   ** Warning ** CalcDoe2DXCoil: Coil:Cooling:DX:SingleSpeed \"COIL COOLING DX SINGLE SPEED 9 18KBTU/HR 9.3EER\" - Air-cooled condenser inlet dry-bulb temperature below 0 C. Outdoor dry-bulb temperature = -16.68\n   **   ~~~   **  ... Occurrence info = RUN PERIOD 1, 01/01 10:30 - 10:35\n   **   ~~~   ** ... Operation at low ambient temperatures may require special performance curves.\n   ** Warning ** CalcDoe2DXCoil: Coil:Cooling:DX:SingleSpeed \"COIL COOLING DX SINGLE SPEED 16 12KBTU/HR 9.9EER\" - Air-cooled condenser inlet dry-bulb temperature below 0 C. Outdoor dry-bulb temperature = -16.68\n   **   ~~~   **  ... Occurrence info = RUN PERIOD 1, 01/01 10:30 - 10:35\n   **   ~~~   ** ... Operation at low ambient temperatures may require special performance curves.\n   ** Warning ** CalcDoe2DXCoil: Coil:Cooling:DX:SingleSpeed \"COIL COOLING DX SINGLE SPEED 15 12KBTU/HR 9.9EER\" - Air-cooled condenser inlet dry-bulb temperature below 0 C. Outdoor dry-bulb temperature = -16.68\n   **   ~~~   **  ... Occurrence info = RUN PERIOD 1, 01/01 10:35 - 10:40\n   **   ~~~   ** ... Operation at low ambient temperatures may require special performance curves.\n   ** Warning ** CalcDoe2DXCoil: Coil:Cooling:DX:SingleSpeed \"COIL COOLING DX SINGLE SPEED 26 23KBTU/HR 9.3EER\" - Air-cooled condenser inlet dry-bulb temperature below 0 C. Outdoor dry-bulb temperature = -17.00\n   **   ~~~   **  ... Occurrence info = RUN PERIOD 1, 01/01 10:55 - 11:00\n   **   ~~~   ** ... Operation at low ambient temperatures may require special performance curves.\n   ** Warning ** CalcDoe2DXCoil: Coil:Cooling:DX:SingleSpeed \"COIL COOLING DX SINGLE SPEED 18 21KBTU/HR 9.3EER\" - Air-cooled condenser inlet dry-bulb temperature below 0 C. Outdoor dry-bulb temperature = -16.85\n   **   ~~~   **  ... Occurrence info = RUN PERIOD 1, 01/01 11:08 - 11:15\n   **   ~~~   ** ... Operation at low ambient temperatures may require special performance curves.\n   ** Warning ** CalcDoe2DXCoil: Coil:Cooling:DX:SingleSpeed \"COIL COOLING DX SINGLE SPEED 24 19KBTU/HR 9.3EER\" - Air-cooled condenser inlet dry-bulb temperature below 0 C. Outdoor dry-bulb temperature = -16.85\n   **   ~~~   **  ... Occurrence info = RUN PERIOD 1, 01/01 11:08 - 11:15\n   **   ~~~   ** ... Operation at low ambient temperatures may require special performance curves.\n   ** Warning ** CalcDoe2DXCoil: Coil:Cooling:DX:SingleSpeed \"COIL COOLING DX SINGLE SPEED 25 19KBTU/HR 9.3EER\" - Air-cooled condenser inlet dry-bulb temperature below 0 C. Outdoor dry-bulb temperature = -16.85\n   **   ~~~   **  ... Occurrence info = RUN PERIOD 1, 01/01 11:08 - 11:15\n   **   ~~~   ** ... Operation at low ambient temperatures may require special performance curves.\n   ** Warning ** CalcDoe2DXCoil: Coil:Cooling:DX:SingleSpeed \"COIL COOLING DX SINGLE SPEED 27 26KBTU/HR 9.3EER\" - Air-cooled condenser inlet dry-bulb temperature below 0 C. Outdoor dry-bulb temperature = -16.55\n   **   ~~~   **  ... Occurrence info = RUN PERIOD 1, 01/01 11:38 - 11:45\n   **   ~~~   ** ... Operation at low ambient temperatures may require special performance curves.\n   ** Warning ** CalcDoe2DXCoil: Coil:Cooling:DX:SingleSpeed \"COIL COOLING DX SINGLE SPEED 6 8KBTU/HR 10.8EER\" - Air-cooled condenser inlet dry-bulb temperature below 0 C. Outdoor dry-bulb temperature = -14.93\n   **   ~~~   **  ... Occurrence info = RUN PERIOD 1, 01/01 14:30 - 14:45\n   **   ~~~   ** ... Operation at low ambient temperatures may require special performance curves.\n   ** Warning ** CalcDoe2DXCoil: Coil:Cooling:DX:SingleSpeed \"COIL COOLING DX SINGLE SPEED 14 9KBTU/HR 10.6EER\" - Air-cooled condenser inlet dry-bulb temperature below 0 C. Outdoor dry-bulb temperature = -14.70\n   **   ~~~   **  ... Occurrence info = RUN PERIOD 1, 01/01 14:45 - 15:00\n   **   ~~~   ** ... Operation at low ambient temperatures may require special performance curves.\n   ** Warning ** CalcDoe2DXCoil: Coil:Cooling:DX:SingleSpeed \"COIL COOLING DX SINGLE SPEED 23 15KBTU/HR 9.3EER\" - Air-cooled condenser inlet dry-bulb temperature below 0 C. Outdoor dry-bulb temperature = -1.45\n   **   ~~~   **  ... Occurrence info = RUN PERIOD 1, 01/25 15:30 - 15:45\n   **   ~~~   ** ... Operation at low ambient temperatures may require special performance curves.\n   ** Warning ** CalcDoe2DXCoil: Coil:Cooling:DX:SingleSpeed \"COIL COOLING DX SINGLE SPEED 5 18KBTU/HR 9.3EER\" - Air-cooled condenser inlet dry-bulb temperature below 0 C. Outdoor dry-bulb temperature = -1.30\n   **   ~~~   **  ... Occurrence info = RUN PERIOD 1, 01/25 16:00 - 16:15\n   **   ~~~   ** ... Operation at low ambient temperatures may require special performance curves.\n   ** Warning ** CalcDoe2DXCoil: Coil:Cooling:DX:SingleSpeed \"COIL COOLING DX SINGLE SPEED 13 19KBTU/HR 9.3EER\" - Air-cooled condenser inlet dry-bulb temperature below 0 C. Outdoor dry-bulb temperature = -1.30\n   **   ~~~   **  ... Occurrence info = RUN PERIOD 1, 01/25 16:00 - 16:15\n   **   ~~~   ** ... Operation at low ambient temperatures may require special performance curves.\n   ** Warning ** CalcDoe2DXCoil: Coil:Cooling:DX:SingleSpeed \"COIL COOLING DX SINGLE SPEED 22 24KBTU/HR 9.3EER\" - Air-cooled condenser inlet dry-bulb temperature below 0 C. Outdoor dry-bulb temperature = -1.00\n   **   ~~~   **  ... Occurrence info = RUN PERIOD 1, 01/26 16:15 - 16:30\n   **   ~~~   ** ... Operation at low ambient temperatures may require special performance curves.\n   ** Warning ** CalcDoe2DXCoil: Coil:Cooling:DX:SingleSpeed \"COIL COOLING DX SINGLE SPEED 21 23KBTU/HR 9.3EER\" - Air-cooled condenser inlet dry-bulb temperature below 0 C. Outdoor dry-bulb temperature = -4.28\n   **   ~~~   **  ... Occurrence info = RUN PERIOD 1, 02/05 12:30 - 12:45\n   **   ~~~   ** ... Operation at low ambient temperatures may require special performance curves.\n   ** Warning ** CalcDoe2DXCoil: Coil:Cooling:DX:SingleSpeed \"COIL COOLING DX SINGLE SPEED 12 19KBTU/HR 9.3EER\" - Air-cooled condenser inlet dry-bulb temperature below 0 C. Outdoor dry-bulb temperature = -4.10\n   **   ~~~   **  ... Occurrence info = RUN PERIOD 1, 02/05 13:15 - 13:30\n   **   ~~~   ** ... Operation at low ambient temperatures may require special performance curves.\n   ** Warning ** CalcDoe2DXCoil: Coil:Cooling:DX:SingleSpeed \"COIL COOLING DX SINGLE SPEED 4 17KBTU/HR 9.3EER\" - Air-cooled condenser inlet dry-bulb temperature below 0 C. Outdoor dry-bulb temperature = -2.00\n   **   ~~~   **  ... Occurrence info = RUN PERIOD 1, 02/22 09:56 - 10:00\n   **   ~~~   ** ... Operation at low ambient temperatures may require special performance curves.\n   ** Warning ** CalcDoe2DXCoil: Coil:Cooling:DX:SingleSpeed \"COIL COOLING DX SINGLE SPEED 10 8KBTU/HR 10.7EER\" - Air-cooled condenser inlet dry-bulb temperature below 0 C. Outdoor dry-bulb temperature = -0.70\n   **   ~~~   **  ... Occurrence info = RUN PERIOD 1, 02/22 18:15 - 18:30\n   **   ~~~   ** ... Operation at low ambient temperatures may require special performance curves.\n   ** Warning ** CalcDoe2DXCoil: Coil:Cooling:DX:SingleSpeed \"COIL COOLING DX SINGLE SPEED 11 8KBTU/HR 10.8EER\" - Air-cooled condenser inlet dry-bulb temperature below 0 C. Outdoor dry-bulb temperature = -0.90\n   **   ~~~   **  ... Occurrence info = RUN PERIOD 1, 02/22 18:30 - 18:45\n   **   ~~~   ** ... Operation at low ambient temperatures may require special performance curves.\n   ** Warning ** CalcDoe2DXCoil: Coil:Cooling:DX:SingleSpeed \"COIL COOLING DX SINGLE SPEED 20 14KBTU/HR 9.5EER\" - Air-cooled condenser inlet dry-bulb temperature below 0 C. Outdoor dry-bulb temperature = -0.10\n   **   ~~~   **  ... Occurrence info = RUN PERIOD 1, 02/26 13:45 - 14:00\n   **   ~~~   ** ... Operation at low ambient temperatures may require special performance curves.\n   ** Warning ** CalcDoe2DXCoil: Coil:Cooling:DX:SingleSpeed \"COIL COOLING DX SINGLE SPEED 19 14KBTU/HR 9.5EER\" - Air-cooled condenser inlet dry-bulb temperature below 0 C. Outdoor dry-bulb temperature = -0.10\n   **   ~~~   **  ... Occurrence info = RUN PERIOD 1, 02/26 14:23 - 14:30\n   **   ~~~   ** ... Operation at low ambient temperatures may require special performance curves.\n   ** Warning ** CalcDoe2DXCoil: Coil:Cooling:DX:SingleSpeed \"COIL COOLING DX SINGLE SPEED 2 7KBTU/HR 10.9EER\" - Air-cooled condenser inlet dry-bulb temperature below 0 C. Outdoor dry-bulb temperature = -1.30\n   **   ~~~   **  ... Occurrence info = RUN PERIOD 1, 03/07 19:15 - 19:30\n   **   ~~~   ** ... Operation at low ambient temperatures may require special performance curves.\n   ** Warning ** The resource referenced by LifeCycleCost:UsePriceEscalation= \"U.S. AVG  COMMERCIAL-DISTILLATE OIL\" has no energy cost. \n   **   ~~~   ** ... It is likely that the wrong resource is used. The resource should match the meter used in Utility:Tariff.\n   ** Warning ** The resource referenced by LifeCycleCost:UsePriceEscalation= \"U.S. AVG  COMMERCIAL-RESIDUAL OIL\" has no energy cost. \n   **   ~~~   ** ... It is likely that the wrong resource is used. The resource should match the meter used in Utility:Tariff.\n   ** Warning ** The resource referenced by LifeCycleCost:UsePriceEscalation= \"U.S. AVG  COMMERCIAL-COAL\" has no energy cost. \n   **   ~~~   ** ... It is likely that the wrong resource is used. The resource should match the meter used in Utility:Tariff.\n   ************* Simulation Error Summary *************\n   ** Severe  ** Orphaned ZoneHVAC object found.  This was object never referenced in the input, and was not used.\n   **   ~~~   **  -- Object type: ZoneHVAC:Baseboard:Convective:Water\n   **   ~~~   **  -- Object name: Zone HVAC Baseboard Convective Water 1\n   ** Severe  ** Orphaned ZoneHVAC object found.  This was object never referenced in the input, and was not used.\n   **   ~~~   **  -- Object type: ZoneHVAC:Baseboard:Convective:Water\n   **   ~~~   **  -- Object name: Zone HVAC Baseboard Convective Water 2\n   ** Severe  ** Orphaned ZoneHVAC object found.  This was object never referenced in the input, and was not used.\n   **   ~~~   **  -- Object type: ZoneHVAC:Baseboard:Convective:Water\n   **   ~~~   **  -- Object name: Zone HVAC Baseboard Convective Water 3\n   ** Severe  ** Orphaned ZoneHVAC object found.  This was object never referenced in the input, and was not used.\n   **   ~~~   **  -- Object type: ZoneHVAC:Baseboard:Convective:Water\n   **   ~~~   **  -- Object name: Zone HVAC Baseboard Convective Water 4\n   ** Severe  ** Orphaned ZoneHVAC object found.  This was object never referenced in the input, and was not used.\n   **   ~~~   **  -- Object type: ZoneHVAC:Baseboard:Convective:Water\n   **   ~~~   **  -- Object name: Zone HVAC Baseboard Convective Water 5\n   ** Severe  ** Orphaned ZoneHVAC object found.  This was object never referenced in the input, and was not used.\n   **   ~~~   **  -- Object type: ZoneHVAC:Baseboard:Convective:Water\n   **   ~~~   **  -- Object name: Zone HVAC Baseboard Convective Water 6\n   ** Severe  ** Orphaned ZoneHVAC object found.  This was object never referenced in the input, and was not used.\n   **   ~~~   **  -- Object type: ZoneHVAC:Baseboard:Convective:Water\n   **   ~~~   **  -- Object name: Zone HVAC Baseboard Convective Water 7\n   ** Severe  ** Orphaned ZoneHVAC object found.  This was object never referenced in the input, and was not used.\n   **   ~~~   **  -- Object type: ZoneHVAC:Baseboard:Convective:Water\n   **   ~~~   **  -- Object name: Zone HVAC Baseboard Convective Water 8\n   ** Severe  ** Orphaned ZoneHVAC object found.  This was object never referenced in the input, and was not used.\n   **   ~~~   **  -- Object type: ZoneHVAC:Baseboard:Convective:Water\n   **   ~~~   **  -- Object name: Zone HVAC Baseboard Convective Water 9\n   ** Severe  ** Orphaned ZoneHVAC object found.  This was object never referenced in the input, and was not used.\n   **   ~~~   **  -- Object type: ZoneHVAC:Baseboard:Convective:Water\n   **   ~~~   **  -- Object name: Zone HVAC Baseboard Convective Water 10\n   ** Severe  ** Orphaned ZoneHVAC object found.  This was object never referenced in the input, and was not used.\n   **   ~~~   **  -- Object type: ZoneHVAC:Baseboard:Convective:Water\n   **   ~~~   **  -- Object name: Zone HVAC Baseboard Convective Water 11\n   ** Severe  ** Orphaned ZoneHVAC object found.  This was object never referenced in the input, and was not used.\n   **   ~~~   **  -- Object type: ZoneHVAC:Baseboard:Convective:Water\n   **   ~~~   **  -- Object name: Zone HVAC Baseboard Convective Water 12\n   ** Severe  ** Orphaned ZoneHVAC object found.  This was object never referenced in the input, and was not used.\n   **   ~~~   **  -- Object type: ZoneHVAC:Baseboard:Convective:Water\n   **   ~~~   **  -- Object name: Zone HVAC Baseboard Convective Water 13\n   ** Severe  ** Orphaned ZoneHVAC object found.  This was object never referenced in the input, and was not used.\n   **   ~~~   **  -- Object type: ZoneHVAC:Baseboard:Convective:Water\n   **   ~~~   **  -- Object name: Zone HVAC Baseboard Convective Water 14\n   ** Severe  ** Orphaned ZoneHVAC object found.  This was object never referenced in the input, and was not used.\n   **   ~~~   **  -- Object type: ZoneHVAC:Baseboard:Convective:Water\n   **   ~~~   **  -- Object name: Zone HVAC Baseboard Convective Water 15\n   ** Severe  ** Orphaned ZoneHVAC object found.  This was object never referenced in the input, and was not used.\n   **   ~~~   **  -- Object type: ZoneHVAC:Baseboard:Convective:Water\n   **   ~~~   **  -- Object name: Zone HVAC Baseboard Convective Water 16\n   ** Severe  ** Orphaned ZoneHVAC object found.  This was object never referenced in the input, and was not used.\n   **   ~~~   **  -- Object type: ZoneHVAC:Baseboard:Convective:Water\n   **   ~~~   **  -- Object name: Zone HVAC Baseboard Convective Water 17\n   ** Severe  ** Orphaned ZoneHVAC object found.  This was object never referenced in the input, and was not used.\n   **   ~~~   **  -- Object type: ZoneHVAC:Baseboard:Convective:Water\n   **   ~~~   **  -- Object name: Zone HVAC Baseboard Convective Water 18\n   ** Severe  ** Orphaned ZoneHVAC object found.  This was object never referenced in the input, and was not used.\n   **   ~~~   **  -- Object type: ZoneHVAC:Baseboard:Convective:Water\n   **   ~~~   **  -- Object name: Zone HVAC Baseboard Convective Water 19\n   ** Severe  ** Orphaned ZoneHVAC object found.  This was object never referenced in the input, and was not used.\n   **   ~~~   **  -- Object type: ZoneHVAC:Baseboard:Convective:Water\n   **   ~~~   **  -- Object name: Zone HVAC Baseboard Convective Water 20\n   ** Severe  ** Orphaned ZoneHVAC object found.  This was object never referenced in the input, and was not used.\n   **   ~~~   **  -- Object type: ZoneHVAC:Baseboard:Convective:Water\n   **   ~~~   **  -- Object name: Zone HVAC Baseboard Convective Water 21\n   ** Severe  ** Orphaned ZoneHVAC object found.  This was object never referenced in the input, and was not used.\n   **   ~~~   **  -- Object type: ZoneHVAC:Baseboard:Convective:Water\n   **   ~~~   **  -- Object name: Zone HVAC Baseboard Convective Water 22\n   ** Severe  ** Orphaned ZoneHVAC object found.  This was object never referenced in the input, and was not used.\n   **   ~~~   **  -- Object type: ZoneHVAC:Baseboard:Convective:Water\n   **   ~~~   **  -- Object name: Zone HVAC Baseboard Convective Water 23\n   ** Severe  ** Orphaned ZoneHVAC object found.  This was object never referenced in the input, and was not used.\n   **   ~~~   **  -- Object type: ZoneHVAC:Baseboard:Convective:Water\n   **   ~~~   **  -- Object name: Zone HVAC Baseboard Convective Water 24\n   ** Severe  ** Orphaned ZoneHVAC object found.  This was object never referenced in the input, and was not used.\n   **   ~~~   **  -- Object type: ZoneHVAC:Baseboard:Convective:Water\n   **   ~~~   **  -- Object name: Zone HVAC Baseboard Convective Water 25\n   ** Severe  ** Orphaned ZoneHVAC object found.  This was object never referenced in the input, and was not used.\n   **   ~~~   **  -- Object type: ZoneHVAC:Baseboard:Convective:Water\n   **   ~~~   **  -- Object name: Zone HVAC Baseboard Convective Water 26\n   ** Severe  ** Orphaned ZoneHVAC object found.  This was object never referenced in the input, and was not used.\n   **   ~~~   **  -- Object type: ZoneHVAC:Baseboard:Convective:Water\n   **   ~~~   **  -- Object name: Zone HVAC Baseboard Convective Water 27\n   ************* There are 27 unused objects in input.\n   ************* Use Output:Diagnostics,DisplayUnusedObjects; to see them.\n   ************* There are 9 unused schedules in input.\n   ************* There are 9 unused week schedules in input.\n   ************* There are 19 unused day schedules in input.\n   ************* Use Output:Diagnostics,DisplayUnusedSchedules; to see them.\n   *************\n   ************* ===== Recurring Error Summary =====\n   ************* The following recurring error messages occurred.\n   *************\n   *************  ** Warning ** CalcDoe2DXCoil: Coil:Cooling:DX:SingleSpeed=\"COIL COOLING DX SINGLE SPEED 7 11KBTU/HR 10.1EER\" - Low condenser dry-bulb temperature error continues...\n   *************  **   ~~~   **   This error occurred 2932 total times;\n   *************  **   ~~~   **   during Warmup 0 times;\n   *************  **   ~~~   **   during Sizing 0 times.\n   *************  **   ~~~   **   Max=-5.551115E-017 [C]  Min=-18.4 [C]\n   *************\n   *************  ** Warning ** CalcDoe2DXCoil: Coil:Cooling:DX:SingleSpeed=\"COIL COOLING DX SINGLE SPEED 8 11KBTU/HR 10.1EER\" - Low condenser dry-bulb temperature error continues...\n   *************  **   ~~~   **   This error occurred 2916 total times;\n   *************  **   ~~~   **   during Warmup 0 times;\n   *************  **   ~~~   **   during Sizing 0 times.\n   *************  **   ~~~   **   Max=-5.551115E-017 [C]  Min=-18.4 [C]\n   *************\n   *************  ** Warning ** CalcDoe2DXCoil: Coil:Cooling:DX:SingleSpeed=\"COIL COOLING DX SINGLE SPEED 17 19KBTU/HR 9.3EER\" - Low condenser dry-bulb temperature error continues...\n   *************  **   ~~~   **   This error occurred 2798 total times;\n   *************  **   ~~~   **   during Warmup 0 times;\n   *************  **   ~~~   **   during Sizing 0 times.\n   *************  **   ~~~   **   Max=-5.551115E-017 [C]  Min=-18.4 [C]\n   *************\n   *************  ** Warning ** CalcDoe2DXCoil: Coil:Cooling:DX:SingleSpeed=\"COIL COOLING DX SINGLE SPEED 9 18KBTU/HR 9.3EER\" - Low condenser dry-bulb temperature error continues...\n   *************  **   ~~~   **   This error occurred 2326 total times;\n   *************  **   ~~~   **   during Warmup 0 times;\n   *************  **   ~~~   **   during Sizing 0 times.\n   *************  **   ~~~   **   Max=-2.500000E-002 [C]  Min=-18.4 [C]\n   *************\n   *************  ** Warning ** CalcDoe2DXCoil: Coil:Cooling:DX:SingleSpeed=\"COIL COOLING DX SINGLE SPEED 16 12KBTU/HR 9.9EER\" - Low condenser dry-bulb temperature error continues...\n   *************  **   ~~~   **   This error occurred 3713 total times;\n   *************  **   ~~~   **   during Warmup 0 times;\n   *************  **   ~~~   **   during Sizing 0 times.\n   *************  **   ~~~   **   Max=-1.387779E-017 [C]  Min=-18.8 [C]\n   *************\n   *************  ** Warning ** CalcDoe2DXCoil: Coil:Cooling:DX:SingleSpeed=\"COIL COOLING DX SINGLE SPEED 15 12KBTU/HR 9.9EER\" - Low condenser dry-bulb temperature error continues...\n   *************  **   ~~~   **   This error occurred 3722 total times;\n   *************  **   ~~~   **   during Warmup 0 times;\n   *************  **   ~~~   **   during Sizing 0 times.\n   *************  **   ~~~   **   Max=-1.387779E-017 [C]  Min=-18.9 [C]\n   *************\n   *************  ** Warning ** CalcDoe2DXCoil: Coil:Cooling:DX:SingleSpeed=\"COIL COOLING DX SINGLE SPEED 26 23KBTU/HR 9.3EER\" - Low condenser dry-bulb temperature error continues...\n   *************  **   ~~~   **   This error occurred 1776 total times;\n   *************  **   ~~~   **   during Warmup 0 times;\n   *************  **   ~~~   **   during Sizing 0 times.\n   *************  **   ~~~   **   Max=-5.551115E-017 [C]  Min=-18.4 [C]\n   *************\n   *************  ** Warning ** CalcDoe2DXCoil: Coil:Cooling:DX:SingleSpeed=\"COIL COOLING DX SINGLE SPEED 18 21KBTU/HR 9.3EER\" - Low condenser dry-bulb temperature error continues...\n   *************  **   ~~~   **   This error occurred 2610 total times;\n   *************  **   ~~~   **   during Warmup 0 times;\n   *************  **   ~~~   **   during Sizing 0 times.\n   *************  **   ~~~   **   Max=-2.500000E-002 [C]  Min=-18.475 [C]\n   *************\n   *************  ** Warning ** CalcDoe2DXCoil: Coil:Cooling:DX:SingleSpeed=\"COIL COOLING DX SINGLE SPEED 24 19KBTU/HR 9.3EER\" - Low condenser dry-bulb temperature error continues...\n   *************  **   ~~~   **   This error occurred 1708 total times;\n   *************  **   ~~~   **   during Warmup 0 times;\n   *************  **   ~~~   **   during Sizing 0 times.\n   *************  **   ~~~   **   Max=-2.500000E-002 [C]  Min=-18.4 [C]\n   *************\n   *************  ** Warning ** CalcDoe2DXCoil: Coil:Cooling:DX:SingleSpeed=\"COIL COOLING DX SINGLE SPEED 25 19KBTU/HR 9.3EER\" - Low condenser dry-bulb temperature error continues...\n   *************  **   ~~~   **   This error occurred 1716 total times;\n   *************  **   ~~~   **   during Warmup 0 times;\n   *************  **   ~~~   **   during Sizing 0 times.\n   *************  **   ~~~   **   Max=-2.500000E-002 [C]  Min=-18.4 [C]\n   *************\n   *************  ** Warning ** CalcDoe2DXCoil: Coil:Cooling:DX:SingleSpeed=\"COIL COOLING DX SINGLE SPEED 27 26KBTU/HR 9.3EER\" - Low condenser dry-bulb temperature error continues...\n   *************  **   ~~~   **   This error occurred 1624 total times;\n   *************  **   ~~~   **   during Warmup 0 times;\n   *************  **   ~~~   **   during Sizing 0 times.\n   *************  **   ~~~   **   Max=-2.500000E-002 [C]  Min=-18.4 [C]\n   *************\n   *************  ** Warning ** CalcDoe2DXCoil: Coil:Cooling:DX:SingleSpeed=\"COIL COOLING DX SINGLE SPEED 6 8KBTU/HR 10.8EER\" - Low condenser dry-bulb temperature error continues...\n   *************  **   ~~~   **   This error occurred 1021 total times;\n   *************  **   ~~~   **   during Warmup 0 times;\n   *************  **   ~~~   **   during Sizing 0 times.\n   *************  **   ~~~   **   Max=-2.500000E-002 [C]  Min=-15. [C]\n   *************\n   *************  ** Warning ** CalcDoe2DXCoil: Coil:Cooling:DX:SingleSpeed=\"COIL COOLING DX SINGLE SPEED 14 9KBTU/HR 10.6EER\" - Low condenser dry-bulb temperature error continues...\n   *************  **   ~~~   **   This error occurred 1637 total times;\n   *************  **   ~~~   **   during Warmup 0 times;\n   *************  **   ~~~   **   during Sizing 0 times.\n   *************  **   ~~~   **   Max=-2.500000E-002 [C]  Min=-14.75 [C]\n   *************\n   *************  ** Warning ** CalcDoe2DXCoil: Coil:Cooling:DX:SingleSpeed=\"COIL COOLING DX SINGLE SPEED 23 15KBTU/HR 9.3EER\" - Low condenser dry-bulb temperature error continues...\n   *************  **   ~~~   **   This error occurred 613 total times;\n   *************  **   ~~~   **   during Warmup 0 times;\n   *************  **   ~~~   **   during Sizing 0 times.\n   *************  **   ~~~   **   Max=-2.500000E-002 [C]  Min=-14.7 [C]\n   *************\n   *************  ** Warning ** CalcDoe2DXCoil: Coil:Cooling:DX:SingleSpeed=\"COIL COOLING DX SINGLE SPEED 5 18KBTU/HR 9.3EER\" - Low condenser dry-bulb temperature error continues...\n   *************  **   ~~~   **   This error occurred 406 total times;\n   *************  **   ~~~   **   during Warmup 0 times;\n   *************  **   ~~~   **   during Sizing 0 times.\n   *************  **   ~~~   **   Max=-2.500000E-002 [C]  Min=-12.025 [C]\n   *************\n   *************  ** Warning ** CalcDoe2DXCoil: Coil:Cooling:DX:SingleSpeed=\"COIL COOLING DX SINGLE SPEED 13 19KBTU/HR 9.3EER\" - Low condenser dry-bulb temperature error continues...\n   *************  **   ~~~   **   This error occurred 557 total times;\n   *************  **   ~~~   **   during Warmup 0 times;\n   *************  **   ~~~   **   during Sizing 0 times.\n   *************  **   ~~~   **   Max=-2.500000E-002 [C]  Min=-12.7 [C]\n   *************\n   *************  ** Warning ** CalcDoe2DXCoil: Coil:Cooling:DX:SingleSpeed=\"COIL COOLING DX SINGLE SPEED 22 24KBTU/HR 9.3EER\" - Low condenser dry-bulb temperature error continues...\n   *************  **   ~~~   **   This error occurred 248 total times;\n   *************  **   ~~~   **   during Warmup 0 times;\n   *************  **   ~~~   **   during Sizing 0 times.\n   *************  **   ~~~   **   Max=-2.500000E-002 [C]  Min=-11.85 [C]\n   *************\n   *************  ** Warning ** CalcDoe2DXCoil: Coil:Cooling:DX:SingleSpeed=\"COIL COOLING DX SINGLE SPEED 21 23KBTU/HR 9.3EER\" - Low condenser dry-bulb temperature error continues...\n   *************  **   ~~~   **   This error occurred 91 total times;\n   *************  **   ~~~   **   during Warmup 0 times;\n   *************  **   ~~~   **   during Sizing 0 times.\n   *************  **   ~~~   **   Max=-0.1 [C]  Min=-4.6 [C]\n   *************\n   *************  ** Warning ** CalcDoe2DXCoil: Coil:Cooling:DX:SingleSpeed=\"COIL COOLING DX SINGLE SPEED 12 19KBTU/HR 9.3EER\" - Low condenser dry-bulb temperature error continues...\n   *************  **   ~~~   **   This error occurred 169 total times;\n   *************  **   ~~~   **   during Warmup 0 times;\n   *************  **   ~~~   **   during Sizing 0 times.\n   *************  **   ~~~   **   Max=-0.1 [C]  Min=-4.825 [C]\n   *************\n   *************  ** Warning ** CalcDoe2DXCoil: Coil:Cooling:DX:SingleSpeed=\"COIL COOLING DX SINGLE SPEED 4 17KBTU/HR 9.3EER\" - Low condenser dry-bulb temperature error continues...\n   *************  **   ~~~   **   This error occurred 215 total times;\n   *************  **   ~~~   **   during Warmup 0 times;\n   *************  **   ~~~   **   during Sizing 0 times.\n   *************  **   ~~~   **   Max=-5.000000E-002 [C]  Min=-7.6 [C]\n   *************\n   *************  ** Warning ** CalcDoe2DXCoil: Coil:Cooling:DX:SingleSpeed=\"COIL COOLING DX SINGLE SPEED 10 8KBTU/HR 10.7EER\" - Low condenser dry-bulb temperature error continues...\n   *************  **   ~~~   **   This error occurred 177 total times;\n   *************  **   ~~~   **   during Warmup 0 times;\n   *************  **   ~~~   **   during Sizing 0 times.\n   *************  **   ~~~   **   Max=-2.500000E-002 [C]  Min=-5.7 [C]\n   *************\n   *************  ** Warning ** CalcDoe2DXCoil: Coil:Cooling:DX:SingleSpeed=\"COIL COOLING DX SINGLE SPEED 11 8KBTU/HR 10.8EER\" - Low condenser dry-bulb temperature error continues...\n   *************  **   ~~~   **   This error occurred 112 total times;\n   *************  **   ~~~   **   during Warmup 0 times;\n   *************  **   ~~~   **   during Sizing 0 times.\n   *************  **   ~~~   **   Max=-2.500000E-002 [C]  Min=-3. [C]\n   *************\n   *************  ** Warning ** CalcDoe2DXCoil: Coil:Cooling:DX:SingleSpeed=\"COIL COOLING DX SINGLE SPEED 20 14KBTU/HR 9.5EER\" - Low condenser dry-bulb temperature error continues...\n   *************  **   ~~~   **   This error occurred 6 total times;\n   *************  **   ~~~   **   during Warmup 0 times;\n   *************  **   ~~~   **   during Sizing 0 times.\n   *************  **   ~~~   **   Max=-0.1 [C]  Min=-0.1 [C]\n   *************\n   *************  ** Warning ** CalcDoe2DXCoil: Coil:Cooling:DX:SingleSpeed=\"COIL COOLING DX SINGLE SPEED 19 14KBTU/HR 9.5EER\" - Low condenser dry-bulb temperature error continues...\n   *************  **   ~~~   **   This error occurred 3 total times;\n   *************  **   ~~~   **   during Warmup 0 times;\n   *************  **   ~~~   **   during Sizing 0 times.\n   *************  **   ~~~   **   Max=-0.1 [C]  Min=-0.1 [C]\n   *************\n   *************  ** Warning ** CalcDoe2DXCoil: Coil:Cooling:DX:SingleSpeed=\"COIL COOLING DX SINGLE SPEED 2 7KBTU/HR 10.9EER\" - Low condenser dry-bulb temper
[...]
)\"=>0.0, \"heat_cost\"=>0.0, \"cool_cost\"=>0.0, \"heatcool_cost\"=>0.0, \"num_units\"=>nil, \"cummultive_cost\"=>3396.51}, {\"systype\"=>\"PTAC\", \"zone_number\"=>3, \"zone_name\"=>\"Sp-G N2 Apartment Sys-1 Flr-1 Sch-G HPlcmt-north ZN\", \"zone_multiple\"=>1, \"heat_capacity(kW)\"=>2.3, \"cool_capacity(kW)\"=>2.0, \"heat_cost\"=>0.0, \"cool_cost\"=>1698.26, \"heatcool_cost\"=>0.0, \"num_units\"=>1.0, \"cummultive_cost\"=>5094.77}, {\"systype\"=>nil, \"zone_number\"=>3, \"zone_name\"=>\"Sp-G N2 Apartment Sys-1 Flr-1 Sch-G HPlcmt-north ZN\", \"zone_multiple\"=>1, \"heat_capacity(kW)\"=>2.3, \"cool_capacity(kW)\"=>0.0, \"heat_cost\"=>0.0, \"cool_cost\"=>0.0, \"heatcool_cost\"=>0.0, \"num_units\"=>nil, \"cummultive_cost\"=>5094.77}, {\"systype\"=>\"PTAC\", \"zone_number\"=>4, \"zone_name\"=>\"Sp-G NE Apartment Sys-1 Flr-1 Sch-G HPlcmt-north ZN\", \"zone_multiple\"=>1, \"heat_capacity(kW)\"=>3.2, \"cool_capacity(kW)\"=>5.1, \"heat_cost\"=>0.0, \"cool_cost\"=>3135.72, \"heatcool_cost\"=>0.0, \"num_units\"=>1.0, \"cummultive_cost\"=>8230.49}, {\"systype\"=>nil, \"zone_number\"=>4, \"zone_name\"=>\"Sp-G NE Apartment Sys-1 Flr-1 Sch-G HPlcmt-north ZN\", \"zone_multiple\"=>1, \"heat_capacity(kW)\"=>3.2, \"cool_capacity(kW)\"=>0.0, \"heat_cost\"=>0.0, \"cool_cost\"=>0.0, \"heatcool_cost\"=>0.0, \"num_units\"=>nil, \"cummultive_cost\"=>8230.49}, {\"systype\"=>\"PTAC\", \"zone_number\"=>5, \"zone_name\"=>\"Sp-G NW Apartment Sys-1 Flr-1 Sch-G HPlcmt-north ZN\", \"zone_multiple\"=>1, \"heat_capacity(kW)\"=>3.2, \"cool_capacity(kW)\"=>5.1, \"heat_cost\"=>0.0, \"cool_cost\"=>3135.72, \"heatcool_cost\"=>0.0, \"num_units\"=>1.0, \"cummultive_cost\"=>11366.2}, {\"systype\"=>nil, \"zone_number\"=>5, \"zone_name\"=>\"Sp-G NW Apartment Sys-1 Flr-1 Sch-G HPlcmt-north ZN\", \"zone_multiple\"=>1, \"heat_capacity(kW)\"=>3.2, \"cool_capacity(kW)\"=>0.0, \"heat_cost\"=>0.0, \"cool_cost\"=>0.0, \"heatcool_cost\"=>0.0, \"num_units\"=>nil, \"cummultive_cost\"=>11366.2}, {\"systype\"=>\"PTAC\", \"zone_number\"=>6, \"zone_name\"=>\"Sp-G S1 Apartment Sys-1 Flr-1 Sch-G HPlcmt-south ZN\", \"zone_multiple\"=>1, \"heat_capacity(kW)\"=>2.3, \"cool_capacity(kW)\"=>3.2, \"heat_cost\"=>0.0, \"cool_cost\"=>1855.83, \"heatcool_cost\"=>0.0, \"num_units\"=>1.0, \"cummultive_cost\"=>13222.03}, {\"systype\"=>nil, \"zone_number\"=>6, \"zone_name\"=>\"Sp-G S1 Apartment Sys-1 Flr-1 Sch-G HPlcmt-south ZN\", \"zone_multiple\"=>1, \"heat_capacity(kW)\"=>2.3, \"cool_capacity(kW)\"=>0.0, \"heat_cost\"=>0.0, \"cool_cost\"=>0.0, \"heatcool_cost\"=>0.0, \"num_units\"=>nil, \"cummultive_cost\"=>13222.03}, {\"systype\"=>\"PTAC\", \"zone_number\"=>7, \"zone_name\"=>\"Sp-G S2 Apartment Sys-1 Flr-1 Sch-G HPlcmt-south ZN\", \"zone_multiple\"=>1, \"heat_capacity(kW)\"=>2.3, \"cool_capacity(kW)\"=>3.3, \"heat_cost\"=>0.0, \"cool_cost\"=>1855.83, \"heatcool_cost\"=>0.0, \"num_units\"=>1.0, \"cummultive_cost\"=>15077.86}, {\"systype\"=>nil, \"zone_number\"=>7, \"zone_name\"=>\"Sp-G S2 Apartment Sys-1 Flr-1 Sch-G HPlcmt-south ZN\", \"zone_multiple\"=>1, \"heat_capacity(kW)\"=>2.3, \"cool_capacity(kW)\"=>0.0, \"heat_cost\"=>0.0, \"cool_cost\"=>0.0, \"heatcool_cost\"=>0.0, \"num_units\"=>nil, \"cummultive_cost\"=>15077.86}, {\"systype\"=>\"PTAC\", \"zone_number\"=>8, \"zone_name\"=>\"Sp-G SW Apartment Sys-1 Flr-1 Sch-G HPlcmt-south ZN\", \"zone_multiple\"=>1, \"heat_capacity(kW)\"=>3.2, \"cool_capacity(kW)\"=>5.4, \"heat_cost\"=>0.0, \"cool_cost\"=>3278.2, \"heatcool_cost\"=>0.0, \"num_units\"=>1.0, \"cummultive_cost\"=>18356.06}, {\"systype\"=>nil, \"zone_number\"=>8, \"zone_name\"=>\"Sp-G SW Apartment Sys-1 Flr-1 Sch-G HPlcmt-south ZN\", \"zone_multiple\"=>1, \"heat_capacity(kW)\"=>3.2, \"cool_capacity(kW)\"=>0.0, \"heat_cost\"=>0.0, \"cool_cost\"=>0.0, \"heatcool_cost\"=>0.0, \"num_units\"=>nil, \"cummultive_cost\"=>18356.06}, {\"systype\"=>\"PTAC\", \"zone_number\"=>9, \"zone_name\"=>\"Sp-M Corridor Sys-1 Flr-2 Sch-G HPlcmt-east ZN\", \"zone_multiple\"=>2, \"heat_capacity(kW)\"=>6.9, \"cool_capacity(kW)\"=>5.3, \"heat_cost\"=>0.0, \"cool_cost\"=>3396.51, \"heatcool_cost\"=>0.0, \"num_units\"=>1.0, \"cummultive_cost\"=>21752.58}, {\"systype\"=>nil, \"zone_number\"=>9, \"zone_name\"=>\"Sp-M Corridor Sys-1 Flr-2 Sch-G HPlcmt-east ZN\", \"zone_multiple\"=>2, \"heat_capacity(kW)\"=>6.9, \"cool_capacity(kW)\"=>0.0, \"heat_cost\"=>0.0, \"cool_cost\"=>0.0, \"heatcool_cost\"=>0.0, \"num_units\"=>nil, \"cummultive_cost\"=>21752.58}, {\"systype\"=>\"PTAC\", \"zone_number\"=>10, \"zone_name\"=>\"Sp-M N1 Apartment Sys-1 Flr-2 Sch-G HPlcmt-north ZN\", \"zone_multiple\"=>2, \"heat_capacity(kW)\"=>5.5, \"cool_capacity(kW)\"=>4.8, \"heat_cost\"=>0.0, \"cool_cost\"=>3396.51, \"heatcool_cost\"=>0.0, \"num_units\"=>1.0, \"cummultive_cost\"=>25149.09}, {\"systype\"=>nil, \"zone_number\"=>10, \"zone_name\"=>\"Sp-M N1 Apartment Sys-1 Flr-2 Sch-G HPlcmt-north ZN\", \"zone_multiple\"=>2, \"heat_capacity(kW)\"=>5.5, \"cool_capacity(kW)\"=>0.0, \"heat_cost\"=>0.0, \"cool_cost\"=>0.0, \"heatcool_cost\"=>0.0, \"num_units\"=>nil, \"cummultive_cost\"=>25149.09}, {\"systype\"=>\"PTAC\", \"zone_number\"=>11, \"zone_name\"=>\"Sp-M N2 Apartment Sys-1 Flr-2 Sch-G HPlcmt-north ZN\", \"zone_multiple\"=>2, \"heat_capacity(kW)\"=>5.5, \"cool_capacity(kW)\"=>4.6, \"heat_cost\"=>0.0, \"cool_cost\"=>3396.51, \"heatcool_cost\"=>0.0, \"num_units\"=>1.0, \"cummultive_cost\"=>28545.6}, {\"systype\"=>nil, \"zone_number\"=>11, \"zone_name\"=>\"Sp-M N2 Apartment Sys-1 Flr-2 Sch-G HPlcmt-north ZN\", \"zone_multiple\"=>2, \"heat_capacity(kW)\"=>5.5, \"cool_capacity(kW)\"=>0.0, \"heat_cost\"=>0.0, \"cool_cost\"=>0.0, \"heatcool_cost\"=>0.0, \"num_units\"=>nil, \"cummultive_cost\"=>28545.6}, {\"systype\"=>\"PTAC\", \"zone_number\"=>12, \"zone_name\"=>\"Sp-M NE Apartment Sys-1 Flr-2 Sch-G HPlcmt-north ZN\", \"zone_multiple\"=>2, \"heat_capacity(kW)\"=>7.6, \"cool_capacity(kW)\"=>10.8, \"heat_cost\"=>0.0, \"cool_cost\"=>6556.41, \"heatcool_cost\"=>0.0, \"num_units\"=>1.0, \"cummultive_cost\"=>35102.01}, {\"systype\"=>nil, \"zone_number\"=>12, \"zone_name\"=>\"Sp-M NE Apartment Sys-1 Flr-2 Sch-G HPlcmt-north ZN\", \"zone_multiple\"=>2, \"heat_capacity(kW)\"=>7.6, \"cool_capacity(kW)\"=>0.0, \"heat_cost\"=>0.0, \"cool_cost\"=>0.0, \"heatcool_cost\"=>0.0, \"num_units\"=>nil, \"cummultive_cost\"=>35102.01}, {\"systype\"=>\"PTAC\", \"zone_number\"=>13, \"zone_name\"=>\"Sp-M NW Apartment Sys-1 Flr-2 Sch-G HPlcmt-north ZN\", \"zone_multiple\"=>2, \"heat_capacity(kW)\"=>7.6, \"cool_capacity(kW)\"=>11.2, \"heat_cost\"=>0.0, \"cool_cost\"=>6556.41, \"heatcool_cost\"=>0.0, \"num_units\"=>1.0, \"cummultive_cost\"=>41658.41}, {\"systype\"=>nil, \"zone_number\"=>13, \"zone_name\"=>\"Sp-M NW Apartment Sys-1 Flr-2 Sch-G HPlcmt-north ZN\", \"zone_multiple\"=>2, \"heat_capacity(kW)\"=>7.6, \"cool_capacity(kW)\"=>0.0, \"heat_cost\"=>0.0, \"cool_cost\"=>0.0, \"heatcool_cost\"=>0.0, \"num_units\"=>nil, \"cummultive_cost\"=>41658.41}, {\"systype\"=>\"PTAC\", \"zone_number\"=>14, \"zone_name\"=>\"Sp-M S1 Apartment Sys-1 Flr-2 Sch-G HPlcmt-south ZN\", \"zone_multiple\"=>2, \"heat_capacity(kW)\"=>5.4, \"cool_capacity(kW)\"=>7.2, \"heat_cost\"=>0.0, \"cool_cost\"=>4412.4, \"heatcool_cost\"=>0.0, \"num_units\"=>1.0, \"cummultive_cost\"=>46070.81}, {\"systype\"=>nil, \"zone_number\"=>14, \"zone_name\"=>\"Sp-M S1 Apartment Sys-1 Flr-2 Sch-G HPlcmt-south ZN\", \"zone_multiple\"=>2, \"heat_capacity(kW)\"=>5.4, \"cool_capacity(kW)\"=>0.0, \"heat_cost\"=>0.0, \"cool_cost\"=>0.0, \"heatcool_cost\"=>0.0, \"num_units\"=>nil, \"cummultive_cost\"=>46070.81}, {\"systype\"=>\"PTAC\", \"zone_number\"=>15, \"zone_name\"=>\"Sp-M S2 Apartment Sys-1 Flr-2 Sch-G HPlcmt-south ZN\", \"zone_multiple\"=>2, \"heat_capacity(kW)\"=>5.4, \"cool_capacity(kW)\"=>7.3, \"heat_cost\"=>0.0, \"cool_cost\"=>4412.4, \"heatcool_cost\"=>0.0, \"num_units\"=>1.0, \"cummultive_cost\"=>50483.21}, {\"systype\"=>nil, \"zone_number\"=>15, \"zone_name\"=>\"Sp-M S2 Apartment Sys-1 Flr-2 Sch-G HPlcmt-south ZN\", \"zone_multiple\"=>2, \"heat_capacity(kW)\"=>5.4, \"cool_capacity(kW)\"=>0.0, \"heat_cost\"=>0.0, \"cool_cost\"=>0.0, \"heatcool_cost\"=>0.0, \"num_units\"=>nil, \"cummultive_cost\"=>50483.21}, {\"systype\"=>\"PTAC\", \"zone_number\"=>16, \"zone_name\"=>\"Sp-M SE Apartment Sys-1 Flr-2 Sch-G HPlcmt-south ZN\", \"zone_multiple\"=>2, \"heat_capacity(kW)\"=>7.6, \"cool_capacity(kW)\"=>10.9, \"heat_cost\"=>0.0, \"cool_cost\"=>6556.41, \"heatcool_cost\"=>0.0, \"num_units\"=>1.0, \"cummultive_cost\"=>57039.61}, {\"systype\"=>nil, \"zone_number\"=>16, \"zone_name\"=>\"Sp-M SE Apartment Sys-1 Flr-2 Sch-G HPlcmt-south ZN\", \"zone_multiple\"=>2, \"heat_capacity(kW)\"=>7.6, \"cool_capacity(kW)\"=>0.0, \"heat_cost\"=>0.0, \"cool_cost\"=>0.0, \"heatcool_cost\"=>0.0, \"num_units\"=>nil, \"cummultive_cost\"=>57039.61}, {\"systype\"=>\"PTAC\", \"zone_number\"=>17, \"zone_name\"=>\"Sp-M SW Apartment Sys-1 Flr-2 Sch-G HPlcmt-south ZN\", \"zone_multiple\"=>2, \"heat_capacity(kW)\"=>7.6, \"cool_capacity(kW)\"=>12.0, \"heat_cost\"=>0.0, \"cool_cost\"=>6556.41, \"heatcool_cost\"=>0.0, \"num_units\"=>1.0, \"cummultive_cost\"=>63596.02}, {\"systype\"=>nil, \"zone_number\"=>17, \"zone_name\"=>\"Sp-M SW Apartment Sys-1 Flr-2 Sch-G HPlcmt-south ZN\", \"zone_multiple\"=>2, \"heat_capacity(kW)\"=>7.6, \"cool_capacity(kW)\"=>0.0, \"heat_cost\"=>0.0, \"cool_cost\"=>0.0, \"heatcool_cost\"=>0.0, \"num_units\"=>nil, \"cummultive_cost\"=>63596.02}, {\"systype\"=>nil, \"zone_number\"=>18, \"zone_name\"=>\"Sp-Office Sys-3 Flr-1 Sch-C HPlcmt-south ZN\", \"zone_multiple\"=>1, \"heat_capacity(kW)\"=>3.5, \"cool_capacity(kW)\"=>0.0, \"heat_cost\"=>0.0, \"cool_cost\"=>0.0, \"heatcool_cost\"=>0.0, \"num_units\"=>nil, \"cummultive_cost\"=>63596.02}, {\"systype\"=>\"PTAC\", \"zone_number\"=>19, \"zone_name\"=>\"Sp-T Corridor Sys-1 Flr-3 Sch-G HPlcmt-west ZN\", \"zone_multiple\"=>1, \"heat_capacity(kW)\"=>5.1, \"cool_capacity(kW)\"=>4.4, \"heat_cost\"=>0.0, \"cool_cost\"=>3135.72, \"heatcool_cost\"=>0.0, \"num_units\"=>1.0, \"cummultive_cost\"=>66731.74}, {\"systype\"=>nil, \"zone_number\"=>19, \"zone_name\"=>\"Sp-T Corridor Sys-1 Flr-3 Sch-G HPlcmt-west ZN\", \"zone_multiple\"=>1, \"heat_capacity(kW)\"=>5.1, \"cool_capacity(kW)\"=>0.0, \"heat_cost\"=>0.0, \"cool_cost\"=>0.0, \"heatcool_cost\"=>0.0, \"num_units\"=>nil, \"cummultive_cost\"=>66731.74}, {\"systype\"=>\"PTAC\", \"zone_number\"=>20, \"zone_name\"=>\"Sp-T N1 Apartment Sys-1 Flr-3 Sch-G HPlcmt-north ZN\", \"zone_multiple\"=>1, \"heat_capacity(kW)\"=>4.4, \"cool_capacity(kW)\"=>4.1, \"heat_cost\"=>0.0, \"cool_cost\"=>2206.2, \"heatcool_cost\"=>0.0, \"num_units\"=>1.0, \"cummultive_cost\"=>68937.94}, {\"systype\"=>nil, \"zone_number\"=>20, \"zone_name\"=>\"Sp-T N1 Apartment Sys-1 Flr-3 Sch-G HPlcmt-north ZN\", \"zone_multiple\"=>1, \"heat_capacity(kW)\"=>4.4, \"cool_capacity(kW)\"=>0.0, \"heat_cost\"=>0.0, \"cool_cost\"=>0.0, \"heatcool_cost\"=>0.0, \"num_units\"=>nil, \"cummultive_cost\"=>68937.94}, {\"systype\"=>\"PTAC\", \"zone_number\"=>21, \"zone_name\"=>\"Sp-T N2 Apartment Sys-1 Flr-3 Sch-G HPlcmt-north ZN\", \"zone_multiple\"=>1, \"heat_capacity(kW)\"=>4.4, \"cool_capacity(kW)\"=>4.1, \"heat_cost\"=>0.0, \"cool_cost\"=>2206.2, \"heatcool_cost\"=>0.0, \"num_units\"=>1.0, \"cummultive_cost\"=>71144.13}, {\"systype\"=>nil, \"zone_number\"=>21, \"zone_name\"=>\"Sp-T N2 Apartment Sys-1 Flr-3 Sch-G HPlcmt-north ZN\", \"zone_multiple\"=>1, \"heat_capacity(kW)\"=>4.4, \"cool_capacity(kW)\"=>0.0, \"heat_cost\"=>0.0, \"cool_cost\"=>0.0, \"heatcool_cost\"=>0.0, \"num_units\"=>nil, \"cummultive_cost\"=>71144.13}, {\"systype\"=>\"PTAC\", \"zone_number\"=>22, \"zone_name\"=>\"Sp-T NE Apartment Sys-1 Flr-3 Sch-G HPlcmt-north ZN\", \"zone_multiple\"=>1, \"heat_capacity(kW)\"=>5.4, \"cool_capacity(kW)\"=>6.7, \"heat_cost\"=>0.0, \"cool_cost\"=>3278.2, \"heatcool_cost\"=>0.0, \"num_units\"=>1.0, \"cummultive_cost\"=>74422.34}, {\"systype\"=>nil, \"zone_number\"=>22, \"zone_name\"=>\"Sp-T NE Apartment Sys-1 Flr-3 Sch-G HPlcmt-north ZN\", \"zone_multiple\"=>1, \"heat_capacity(kW)\"=>5.4, \"cool_capacity(kW)\"=>0.0, \"heat_cost\"=>0.0, \"cool_cost\"=>0.0, \"heatcool_cost\"=>0.0, \"num_units\"=>nil, \"cummultive_cost\"=>74422.34}, {\"systype\"=>\"PTAC\", \"zone_number\"=>23, \"zone_name\"=>\"Sp-T NW Apartment Sys-1 Flr-3 Sch-G HPlcmt-north ZN\", \"zone_multiple\"=>1, \"heat_capacity(kW)\"=>5.4, \"cool_capacity(kW)\"=>7.0, \"heat_cost\"=>0.0, \"cool_cost\"=>3278.2, \"heatcool_cost\"=>0.0, \"num_units\"=>1.0, \"cummultive_cost\"=>77700.54}, {\"systype\"=>nil, \"zone_number\"=>23, \"zone_name\"=>\"Sp-T NW Apartment Sys-1 Flr-3 Sch-G HPlcmt-north ZN\", \"zone_multiple\"=>1, \"heat_capacity(kW)\"=>5.4, \"cool_capacity(kW)\"=>0.0, \"heat_cost\"=>0.0, \"cool_cost\"=>0.0, \"heatcool_cost\"=>0.0, \"num_units\"=>nil, \"cummultive_cost\"=>77700.54}, {\"systype\"=>\"PTAC\", \"zone_number\"=>24, \"zone_name\"=>\"Sp-T S1 Apartment Sys-1 Flr-3 Sch-G HPlcmt-south ZN\", \"zone_multiple\"=>1, \"heat_capacity(kW)\"=>4.3, \"cool_capacity(kW)\"=>5.5, \"heat_cost\"=>0.0, \"cool_cost\"=>3278.2, \"heatcool_cost\"=>0.0, \"num_units\"=>1.0, \"cummultive_cost\"=>80978.74}, {\"systype\"=>nil, \"zone_number\"=>24, \"zone_name\"=>\"Sp-T S1 Apartment Sys-1 Flr-3 Sch-G HPlcmt-south ZN\", \"zone_multiple\"=>1, \"heat_capacity(kW)\"=>4.3, \"cool_capacity(kW)\"=>0.0, \"heat_cost\"=>0.0, \"cool_cost\"=>0.0, \"heatcool_cost\"=>0.0, \"num_units\"=>nil, \"cummultive_cost\"=>80978.74}, {\"systype\"=>\"PTAC\", \"zone_number\"=>25, \"zone_name\"=>\"Sp-T S2 Apartment Sys-1 Flr-3 Sch-G HPlcmt-south ZN\", \"zone_multiple\"=>1, \"heat_capacity(kW)\"=>4.3, \"cool_capacity(kW)\"=>5.6, \"heat_cost\"=>0.0, \"cool_cost\"=>3278.2, \"heatcool_cost\"=>0.0, \"num_units\"=>1.0, \"cummultive_cost\"=>84256.95}, {\"systype\"=>nil, \"zone_number\"=>25, \"zone_name\"=>\"Sp-T S2 Apartment Sys-1 Flr-3 Sch-G HPlcmt-south ZN\", \"zone_multiple\"=>1, \"heat_capacity(kW)\"=>4.3, \"cool_capacity(kW)\"=>0.0, \"heat_cost\"=>0.0, \"cool_cost\"=>0.0, \"heatcool_cost\"=>0.0, \"num_units\"=>nil, \"cummultive_cost\"=>84256.95}, {\"systype\"=>\"PTAC\", \"zone_number\"=>26, \"zone_name\"=>\"Sp-T SE Apartment Sys-1 Flr-3 Sch-G HPlcmt-south ZN\", \"zone_multiple\"=>1, \"heat_capacity(kW)\"=>5.3, \"cool_capacity(kW)\"=>6.8, \"heat_cost\"=>0.0, \"cool_cost\"=>3278.2, \"heatcool_cost\"=>0.0, \"num_units\"=>1.0, \"cummultive_cost\"=>87535.15}, {\"systype\"=>nil, \"zone_number\"=>26, \"zone_name\"=>\"Sp-T SE Apartment Sys-1 Flr-3 Sch-G HPlcmt-south ZN\", \"zone_multiple\"=>1, \"heat_capacity(kW)\"=>5.3, \"cool_capacity(kW)\"=>0.0, \"heat_cost\"=>0.0, \"cool_cost\"=>0.0, \"heatcool_cost\"=>0.0, \"num_units\"=>nil, \"cummultive_cost\"=>87535.15}, {\"systype\"=>\"PTAC\", \"zone_number\"=>27, \"zone_name\"=>\"Sp-T SW Apartment Sys-1 Flr-3 Sch-G HPlcmt-south ZN\", \"zone_multiple\"=>1, \"heat_capacity(kW)\"=>5.3, \"cool_capacity(kW)\"=>7.5, \"heat_cost\"=>0.0, \"cool_cost\"=>3735.05, \"heatcool_cost\"=>0.0, \"num_units\"=>1.0, \"cummultive_cost\"=>91270.2}, {\"systype\"=>nil, \"zone_number\"=>27, \"zone_name\"=>\"Sp-T SW Apartment Sys-1 Flr-3 Sch-G HPlcmt-south ZN\", \"zone_multiple\"=>1, \"heat_capacity(kW)\"=>5.3, \"cool_capacity(kW)\"=>0.0, \"heat_cost\"=>0.0, \"cool_cost\"=>0.0, \"heatcool_cost\"=>0.0, \"num_units\"=>nil, \"cummultive_cost\"=>91270.2}]}, \"shw\"=>{}, \"ventilation\"=>{}, \"totals\"=>{\"envelope\"=>228540.75, \"lighting\"=>82537.32, \"heating_and_cooling\"=>138761.25, \"shw\"=>0.0, \"ventilation\"=>164219.87, \"grand_total\"=>614059.19}, \"zonal systems\"=>{}}"
               },
               {
                  "name" : "total_envelope_cost",
                  "value" : 228540.75
               },
               {
                  "name" : "total_lighting_cost",
                  "value" : 82537.320000000007
               },
               {
                  "name" : "total_heating_cooling_cost",
                  "value" : 0
               },
               {
                  "name" : "total_shw_cost",
                  "value" : 0
               },
               {
                  "name" : "total_ventilation_cost",
                  "value" : 164219.87
               },
               {
                  "name" : "total_capital_cost",
                  "value" : 0
               },
               {
                  "name" : "total_neb_utility_costs",
                  "value" : 42143.424399999996
               },
               {
                  "name" : "total_capital_and_energy_costs",
                  "value" : 42143.424399999996
               },
               {
                  "name" : "total_envelope_and_energy_costs",
                  "value" : 270684.17440000002
               }
            ],
            "step_warnings" : []
         }
      },
      {
         "arguments" : {},
         "description" : "Removes a significant portion of the saved results from each run, helping to alleviate memory problems.",
         "measure_dir_name" : "ServerDirectoryCleanup",
         "name" : "server_directory_cleanup",
         "result" : {
            "completed_at" : "20190517T152643Z",
            "measure_class_name" : "ServerDirectoryCleanup",
            "measure_display_name" : "Server Directory Cleanup",
            "measure_name" : "server_directory_cleanup",
            "measure_taxonomy" : "Calibration",
            "measure_type" : "ReportingMeasure",
            "measure_uid" : "ec7d04ad-0b7b-495b-825a-e1b6d28d1d3f",
            "measure_version_id" : "2e0a3f67-3aa6-42cc-b9ff-8aa66615c0a1",
            "measure_version_modified" : "20190226T195336Z",
            "measure_xml_checksum" : "5F1EDF75",
            "started_at" : "20190517T152643Z",
            "stderr" : "",
            "stdout" : "[OpenStudio.Measure] <0> OSArgumentVector is deprecated, use OpenStudio::Measure::OSArgumentVector instead.\n",
            "step_errors" : [],
            "step_files" : [],
            "step_final_condition" : "The following files were in the local run directory following to the execution of this measure: eplusout.mtr, 000_btap_create_necb_prototype_building, sqlite.err, run.log, in.epw, pre-preprocess.idf, measure_attributes.json, eplusout.rdd, 002_btap_utility_tariffs, 001_BTAPHeatPumpAirSystem, 003_ServerDirectoryCleanup, eplusout.mtd, stdout-expandobject, 004_ServerDirectoryCleanup, in.idf, ., eplusout.end, eplustbl.htm, stdout-energyplus, eplusout.err, 003_btap_results, started.job, ...",
            "step_info" : [
               "Deleted ./../eplusout.sql from the run directory.",
               "Deleted ./../eplusout.audit from the run directory.",
               "Deleted ./../in.osm from the run directory.",
               "Deleted ./../eplusout.bnd from the run directory.",
               "Deleted ./../eplusout.eio from the run directory.",
               "Deleted ./../eplusout.shd from the run directory.",
               "Deleted ./../eplusout.mdd from the run directory.",
               "Deleted ./../eplusssz.csv from the run directory.",
               "Deleted ./../epluszsz.csv from the run directory.",
               "Deleted ./../eplusout.eso from the run directory."
            ],
            "step_initial_condition" : "The following files were in the local run directory prior to the execution of this measure: in.osm, eplusout.sql, eplusssz.csv, eplusout.mtr, 000_btap_create_necb_prototype_building, sqlite.err, run.log, in.epw, pre-preprocess.idf, epluszsz.csv, eplusout.bnd, measure_attributes.json, eplusout.rdd, 002_btap_utility_tariffs, 001_BTAPHeatPumpAirSystem, 003_ServerDirectoryCleanup, eplusout.mtd, eplusout.eio, stdout-expandobject, eplusout.eso, 004_ServerDirectoryCleanup, in.idf, eplusout.shd, ., eplusout.end, eplustbl.htm, stdout-energyplus, eplusout.err, eplusout.audit, 003_btap_results, eplusout.mdd, started.job, ...",
            "step_result" : "Success",
            "step_values" : [],
            "step_warnings" : []
         }
      }
   ],
   "updated_at" : "20190517T152647Z",
   "weather_file" : "dummy.epw"
}
