{
   "completed_at" : "20190517T152556Z",
   "completed_status" : "Success",
   "created_at" : "2019-05-17 15:21:41 +0000",
   "current_step" : 5,
   "description" : "",
   "eplusout_err" : "Program Version,EnergyPlus, Version 8.9.0-eba93e8e1b, YMD=2019.05.17 15:24,\n   ************* Beginning Zone Sizing Calculations\n   ** Warning ** ProcessScheduleInput: Schedule:Day:Interval=\"ECONOMIZER MAX OA FRACTION 100 PCT DEFAULT\", Blank Schedule Type Limits Name input -- will not be validated.\n   ** Warning ** ProcessScheduleInput: Schedule:Day:Interval=\"SCHEDULE DAY 1\", Blank Schedule Type Limits Name input -- will not be validated.\n   ** Warning ** ProcessScheduleInput: Schedule:Day:Interval=\"SCHEDULE DAY 10\", Blank Schedule Type Limits Name input -- will not be validated.\n   ** Warning ** ProcessScheduleInput: Schedule:Day:Interval=\"SCHEDULE DAY 11\", Blank Schedule Type Limits Name input -- will not be validated.\n   ** Warning ** ProcessScheduleInput: Schedule:Day:Interval=\"SCHEDULE DAY 12\", Blank Schedule Type Limits Name input -- will not be validated.\n   ** Warning ** ProcessScheduleInput: Schedule:Day:Interval=\"SCHEDULE DAY 13\", Blank Schedule Type Limits Name input -- will not be validated.\n   ** Warning ** ProcessScheduleInput: Schedule:Day:Interval=\"SCHEDULE DAY 14\", Blank Schedule Type Limits Name input -- will not be validated.\n   ** Warning ** ProcessScheduleInput: Schedule:Day:Interval=\"SCHEDULE DAY 15\", Blank Schedule Type Limits Name input -- will not be validated.\n   ** Warning ** ProcessScheduleInput: Schedule:Day:Interval=\"SCHEDULE DAY 16\", Blank Schedule Type Limits Name input -- will not be validated.\n   ** Warning ** ProcessScheduleInput: Schedule:Day:Interval=\"SCHEDULE DAY 17\", Blank Schedule Type Limits Name input -- will not be validated.\n   ** Warning ** ProcessScheduleInput: Schedule:Day:Interval=\"SCHEDULE DAY 18\", Blank Schedule Type Limits Name input -- will not be validated.\n   ** Warning ** ProcessScheduleInput: Schedule:Day:Interval=\"SCHEDULE DAY 19\", Blank Schedule Type Limits Name input -- will not be validated.\n   ** Warning ** ProcessScheduleInput: Schedule:Day:Interval=\"SCHEDULE DAY 2\", Blank Schedule Type Limits Name input -- will not be validated.\n   ** Warning ** ProcessScheduleInput: Schedule:Day:Interval=\"SCHEDULE DAY 20\", Blank Schedule Type Limits Name input -- will not be validated.\n   ** Warning ** ProcessScheduleInput: Schedule:Day:Interval=\"SCHEDULE DAY 21\", Blank Schedule Type Limits Name input -- will not be validated.\n   ** Warning ** ProcessScheduleInput: Schedule:Day:Interval=\"SCHEDULE DAY 22\", Blank Schedule Type Limits Name input -- will not be validated.\n   ** Warning ** ProcessScheduleInput: Schedule:Day:Interval=\"SCHEDULE DAY 23\", Blank Schedule Type Limits Name input -- will not be validated.\n   ** Warning ** ProcessScheduleInput: Schedule:Day:Interval=\"SCHEDULE DAY 24\", Blank Schedule Type Limits Name input -- will not be validated.\n   ** Warning ** ProcessScheduleInput: Schedule:Day:Interval=\"SCHEDULE DAY 25\", Blank Schedule Type Limits Name input -- will not be validated.\n   ** Warning ** ProcessScheduleInput: Schedule:Day:Interval=\"SCHEDULE DAY 26\", Blank Schedule Type Limits Name input -- will not be validated.\n   ** Warning ** ProcessScheduleInput: Schedule:Day:Interval=\"SCHEDULE DAY 27\", Blank Schedule Type Limits Name input -- will not be validated.\n   ** Warning ** ProcessScheduleInput: Schedule:Day:Interval=\"SCHEDULE DAY 28\", Blank Schedule Type Limits Name input -- will not be validated.\n   ** Warning ** ProcessScheduleInput: Schedule:Day:Interval=\"SCHEDULE DAY 29\", Blank Schedule Type Limits Name input -- will not be validated.\n   ** Warning ** ProcessScheduleInput: Schedule:Day:Interval=\"SCHEDULE DAY 30\", Blank Schedule Type Limits Name input -- will not be validated.\n   ** Warning ** ProcessScheduleInput: Schedule:Day:Interval=\"SCHEDULE DAY 31\", Blank Schedule Type Limits Name input -- will not be validated.\n   ** Warning ** ProcessScheduleInput: Schedule:Day:Interval=\"SCHEDULE DAY 32\", Blank Schedule Type Limits Name input -- will not be validated.\n   ** Warning ** ProcessScheduleInput: Schedule:Day:Interval=\"SCHEDULE DAY 33\", Blank Schedule Type Limits Name input -- will not be validated.\n   ** Warning ** ProcessScheduleInput: Schedule:Day:Interval=\"SCHEDULE DAY 34\", Blank Schedule Type Limits Name input -- will not be validated.\n   ** Warning ** ProcessScheduleInput: Schedule:Day:Interval=\"SCHEDULE DAY 35\", Blank Schedule Type Limits Name input -- will not be validated.\n   ** Warning ** ProcessScheduleInput: Schedule:Day:Interval=\"SCHEDULE DAY 36\", Blank Schedule Type Limits Name input -- will not be validated.\n   ** Warning ** ProcessScheduleInput: Schedule:Day:Interval=\"SCHEDULE DAY 37\", Blank Schedule Type Limits Name input -- will not be validated.\n   ** Warning ** ProcessScheduleInput: Schedule:Day:Interval=\"SCHEDULE DAY 38\", Blank Schedule Type Limits Name input -- will not be validated.\n   ** Warning ** ProcessScheduleInput: Schedule:Day:Interval=\"SCHEDULE DAY 39\", Blank Schedule Type Limits Name input -- will not be validated.\n   ** Warning ** ProcessScheduleInput: Schedule:Day:Interval=\"SCHEDULE DAY 40\", Blank Schedule Type Limits Name input -- will not be validated.\n   ** Warning ** ProcessScheduleInput: Schedule:Day:Interval=\"SCHEDULE DAY 41\", Blank Schedule Type Limits Name input -- will not be validated.\n   ** Warning ** ProcessScheduleInput: Schedule:Day:Interval=\"SCHEDULE DAY 42\", Blank Schedule Type Limits Name input -- will not be validated.\n   ** Warning ** ProcessScheduleInput: Schedule:Day:Interval=\"SCHEDULE DAY 43\", Blank Schedule Type Limits Name input -- will not be validated.\n   ** Warning ** ProcessScheduleInput: Schedule:Day:Interval=\"SCHEDULE DAY 44\", Blank Schedule Type Limits Name input -- will not be validated.\n   ** Warning ** ProcessScheduleInput: Schedule:Day:Interval=\"SCHEDULE DAY 45\", Blank Schedule Type Limits Name input -- will not be validated.\n   ** Warning ** ProcessScheduleInput: Schedule:Day:Interval=\"SCHEDULE DAY 46\", Blank Schedule Type Limits Name input -- will not be validated.\n   ** Warning ** ProcessScheduleInput: Schedule:Day:Interval=\"SCHEDULE DAY 47\", Blank Schedule Type Limits Name input -- will not be validated.\n   ** Warning ** ProcessScheduleInput: Schedule:Day:Interval=\"SCHEDULE DAY 48\", Blank Schedule Type Limits Name input -- will not be validated.\n   ** Warning ** ProcessScheduleInput: Schedule:Day:Interval=\"SCHEDULE DAY 49\", Blank Schedule Type Limits Name input -- will not be validated.\n   ** Warning ** ProcessScheduleInput: Schedule:Day:Interval=\"SCHEDULE DAY 50\", Blank Schedule Type Limits Name input -- will not be validated.\n   ** Warning ** ProcessScheduleInput: Schedule:Day:Interval=\"SCHEDULE DAY 51\", Blank Schedule Type Limits Name input -- will not be validated.\n   ** Warning ** ProcessScheduleInput: Schedule:Day:Interval=\"SCHEDULE DAY 52\", Blank Schedule Type Limits Name input -- will not be validated.\n   ** Warning ** ProcessScheduleInput: Schedule:Day:Interval=\"SCHEDULE DAY 53\", Blank Schedule Type Limits Name input -- will not be validated.\n   ** Warning ** ProcessScheduleInput: Schedule:Day:Interval=\"SCHEDULE DAY 54\", Blank Schedule Type Limits Name input -- will not be validated.\n   ** Warning ** ProcessScheduleInput: Schedule:Day:Interval=\"SCHEDULE DAY 55\", Blank Schedule Type Limits Name input -- will not be validated.\n   ** Warning ** ProcessScheduleInput: Schedule:Day:Interval=\"SCHEDULE DAY 56\", Blank Schedule Type Limits Name input -- will not be validated.\n   ** Warning ** ProcessScheduleInput: Schedule:Day:Interval=\"SCHEDULE DAY 57\", Blank Schedule Type Limits Name input -- will not be validated.\n   ** Warning ** ProcessScheduleInput: Schedule:Day:Interval=\"SCHEDULE DAY 58\", Blank Schedule Type Limits Name input -- will not be validated.\n   ** Warning ** ProcessScheduleInput: Schedule:Day:Interval=\"SCHEDULE DAY 59\", Blank Schedule Type Limits Name input -- will not be validated.\n   ** Warning ** ProcessScheduleInput: Schedule:Day:Interval=\"SCHEDULE DAY 60\", Blank Schedule Type Limits Name input -- will not be validated.\n   ** Warning ** ProcessScheduleInput: Schedule:Day:Interval=\"SCHEDULE DAY 61\", Blank Schedule Type Limits Name input -- will not be validated.\n   ** Warning ** ProcessScheduleInput: Schedule:Day:Interval=\"SCHEDULE DAY 62\", Blank Schedule Type Limits Name input -- will not be validated.\n   ** Warning ** ProcessScheduleInput: Schedule:Day:Interval=\"SCHEDULE DAY 63\", Blank Schedule Type Limits Name input -- will not be validated.\n   ** Warning ** ProcessScheduleInput: Schedule:Day:Interval=\"SCHEDULE DAY 64\", Blank Schedule Type Limits Name input -- will not be validated.\n   ** Warning ** ProcessScheduleInput: Schedule:Day:Interval=\"SCHEDULE DAY 65\", Blank Schedule Type Limits Name input -- will not be validated.\n   ** Warning ** ProcessScheduleInput: Schedule:Day:Interval=\"SCHEDULE DAY 66\", Blank Schedule Type Limits Name input -- will not be validated.\n   ** Warning ** ProcessScheduleInput: Schedule:Day:Interval=\"SCHEDULE DAY 67\", Blank Schedule Type Limits Name input -- will not be validated.\n   ** Warning ** ProcessScheduleInput: Schedule:Day:Interval=\"SCHEDULE DAY 68\", Blank Schedule Type Limits Name input -- will not be validated.\n   ** Warning ** ProcessScheduleInput: Schedule:Day:Interval=\"SCHEDULE DAY 69\", Blank Schedule Type Limits Name input -- will not be validated.\n   ** Warning ** ProcessScheduleInput: Schedule:Day:Interval=\"SCHEDULE DAY 7\", Blank Schedule Type Limits Name input -- will not be validated.\n   ** Warning ** ProcessScheduleInput: Schedule:Day:Interval=\"SCHEDULE DAY 70\", Blank Schedule Type Limits Name input -- will not be validated.\n   ** Warning ** ProcessScheduleInput: Schedule:Day:Interval=\"SCHEDULE DAY 71\", Blank Schedule Type Limits Name input -- will not be validated.\n   ** Warning ** ProcessScheduleInput: Schedule:Day:Interval=\"SCHEDULE DAY 8\", Blank Schedule Type Limits Name input -- will not be validated.\n   ** Warning ** ProcessScheduleInput: Schedule:Day:Interval=\"SCHEDULE DAY 9\", Blank Schedule Type Limits Name input -- will not be validated.\n   ** Warning ** ProcessScheduleInput: Schedule:Year=\"ECONOMIZER MAX OA FRACTION 100 PCT\", Blank Schedule Type Limits Name input -- will not be validated.\n   ** Warning ** ProcessScheduleInput: Schedule:Year=\"SCHEDULE RULESET 10\", Blank Schedule Type Limits Name input -- will not be validated.\n   ** Warning ** ProcessScheduleInput: Schedule:Year=\"SCHEDULE RULESET 11\", Blank Schedule Type Limits Name input -- will not be validated.\n   ** Warning ** ProcessScheduleInput: Schedule:Year=\"SCHEDULE RULESET 12\", Blank Schedule Type Limits Name input -- will not be validated.\n   ** Warning ** ProcessScheduleInput: Schedule:Year=\"SCHEDULE RULESET 13\", Blank Schedule Type Limits Name input -- will not be validated.\n   ** Warning ** ProcessScheduleInput: Schedule:Year=\"SCHEDULE RULESET 14\", Blank Schedule Type Limits Name input -- will not be validated.\n   ** Warning ** ProcessScheduleInput: Schedule:Year=\"SCHEDULE RULESET 15\", Blank Schedule Type Limits Name input -- will not be validated.\n   ** Warning ** ProcessScheduleInput: Schedule:Year=\"SCHEDULE RULESET 16\", Blank Schedule Type Limits Name input -- will not be validated.\n   ** Warning ** ProcessScheduleInput: Schedule:Year=\"SCHEDULE RULESET 17\", Blank Schedule Type Limits Name input -- will not be validated.\n   ** Warning ** ProcessScheduleInput: Schedule:Year=\"SCHEDULE RULESET 18\", Blank Schedule Type Limits Name input -- will not be validated.\n   ** Warning ** ProcessScheduleInput: Schedule:Year=\"SCHEDULE RULESET 19\", Blank Schedule Type Limits Name input -- will not be validated.\n   ** Warning ** ProcessScheduleInput: Schedule:Year=\"SCHEDULE RULESET 20\", Blank Schedule Type Limits Name input -- will not be validated.\n   ** Warning ** ProcessScheduleInput: Schedule:Year=\"SCHEDULE RULESET 21\", Blank Schedule Type Limits Name input -- will not be validated.\n   ** Warning ** ProcessScheduleInput: Schedule:Year=\"SCHEDULE RULESET 22\", Blank Schedule Type Limits Name input -- will not be validated.\n   ** Warning ** ProcessScheduleInput: Schedule:Year=\"SCHEDULE RULESET 23\", Blank Schedule Type Limits Name input -- will not be validated.\n   ** Warning ** ProcessScheduleInput: Schedule:Year=\"SCHEDULE RULESET 24\", Blank Schedule Type Limits Name input -- will not be validated.\n   ** Warning ** ProcessScheduleInput: Schedule:Year=\"SCHEDULE RULESET 25\", Blank Schedule Type Limits Name input -- will not be validated.\n   ** Warning ** ProcessScheduleInput: Schedule:Year=\"SCHEDULE RULESET 26\", Blank Schedule Type Limits Name input -- will not be validated.\n   ** Warning ** ProcessScheduleInput: Schedule:Year=\"SCHEDULE RULESET 27\", Blank Schedule Type Limits Name input -- will not be validated.\n   ** Warning ** ProcessScheduleInput: Schedule:Year=\"SCHEDULE RULESET 28\", Blank Schedule Type Limits Name input -- will not be validated.\n   ** Warning ** ProcessScheduleInput: Schedule:Year=\"SCHEDULE RULESET 29\", Blank Schedule Type Limits Name input -- will not be validated.\n   ** Warning ** ProcessScheduleInput: Schedule:Year=\"SCHEDULE RULESET 3\", Blank Schedule Type Limits Name input -- will not be validated.\n   ** Warning ** ProcessScheduleInput: Schedule:Year=\"SCHEDULE RULESET 30\", Blank Schedule Type Limits Name input -- will not be validated.\n   ** Warning ** ProcessScheduleInput: Schedule:Year=\"SCHEDULE RULESET 31\", Blank Schedule Type Limits Name input -- will not be validated.\n   ** Warning ** ProcessScheduleInput: Schedule:Year=\"SCHEDULE RULESET 32\", Blank Schedule Type Limits Name input -- will not be validated.\n   ** Warning ** ProcessScheduleInput: Schedule:Year=\"SCHEDULE RULESET 33\", Blank Schedule Type Limits Name input -- will not be validated.\n   ** Warning ** ProcessScheduleInput: Schedule:Year=\"SCHEDULE RULESET 34\", Blank Schedule Type Limits Name input -- will not be validated.\n   ** Warning ** ProcessScheduleInput: Schedule:Year=\"SCHEDULE RULESET 35\", Blank Schedule Type Limits Name input -- will not be validated.\n   ** Warning ** ProcessScheduleInput: Schedule:Year=\"SCHEDULE RULESET 36\", Blank Schedule Type Limits Name input -- will not be validated.\n   ** Warning ** ProcessScheduleInput: Schedule:Year=\"SCHEDULE RULESET 37\", Blank Schedule Type Limits Name input -- will not be validated.\n   ** Warning ** ProcessScheduleInput: Schedule:Year=\"SCHEDULE RULESET 38\", Blank Schedule Type Limits Name input -- will not be validated.\n   ** Warning ** ProcessScheduleInput: Schedule:Year=\"SCHEDULE RULESET 39\", Blank Schedule Type Limits Name input -- will not be validated.\n   ** Warning ** ProcessScheduleInput: Schedule:Year=\"SCHEDULE RULESET 4\", Blank Schedule Type Limits Name input -- will not be validated.\n   ** Warning ** ProcessScheduleInput: Schedule:Year=\"SCHEDULE RULESET 40\", Blank Schedule Type Limits Name input -- will not be validated.\n   ** Warning ** ProcessScheduleInput: Schedule:Year=\"SCHEDULE RULESET 41\", Blank Schedule Type Limits Name input -- will not be validated.\n   ** Warning ** ProcessScheduleInput: Schedule:Year=\"SCHEDULE RULESET 42\", Blank Schedule Type Limits Name input -- will not be validated.\n   ** Warning ** ProcessScheduleInput: Schedule:Year=\"SCHEDULE RULESET 43\", Blank Schedule Type Limits Name input -- will not be validated.\n   ** Warning ** ProcessScheduleInput: Schedule:Year=\"SCHEDULE RULESET 44\", Blank Schedule Type Limits Name input -- will not be validated.\n   ** Warning ** ProcessScheduleInput: Schedule:Year=\"SCHEDULE RULESET 45\", Blank Schedule Type Limits Name input -- will not be validated.\n   ** Warning ** ProcessScheduleInput: Schedule:Year=\"SCHEDULE RULESET 46\", Blank Schedule Type Limits Name input -- will not be validated.\n   ** Warning ** ProcessScheduleInput: Schedule:Year=\"SCHEDULE RULESET 47\", Blank Schedule Type Limits Name input -- will not be validated.\n   ** Warning ** ProcessScheduleInput: Schedule:Year=\"SCHEDULE RULESET 48\", Blank Schedule Type Limits Name input -- will not be validated.\n   ** Warning ** ProcessScheduleInput: Schedule:Year=\"SCHEDULE RULESET 49\", Blank Schedule Type Limits Name input -- will not be validated.\n   ** Warning ** ProcessScheduleInput: Schedule:Year=\"SCHEDULE RULESET 5\", Blank Schedule Type Limits Name input -- will not be validated.\n   ** Warning ** ProcessScheduleInput: Schedule:Year=\"SCHEDULE RULESET 50\", Blank Schedule Type Limits Name input -- will not be validated.\n   ** Warning ** ProcessScheduleInput: Schedule:Year=\"SCHEDULE RULESET 51\", Blank Schedule Type Limits Name input -- will not be validated.\n   ** Warning ** ProcessScheduleInput: Schedule:Year=\"SCHEDULE RULESET 52\", Blank Schedule Type Limits Name input -- will not be validated.\n   ** Warning ** ProcessScheduleInput: Schedule:Year=\"SCHEDULE RULESET 53\", Blank Schedule Type Limits Name input -- will not be validated.\n   ** Warning ** ProcessScheduleInput: Schedule:Year=\"SCHEDULE RULESET 54\", Blank Schedule Type Limits Name input -- will not be validated.\n   ** Warning ** ProcessScheduleInput: Schedule:Year=\"SCHEDULE RULESET 55\", Blank Schedule Type Limits Name input -- will not be validated.\n   ** Warning ** ProcessScheduleInput: Schedule:Year=\"SCHEDULE RULESET 56\", Blank Schedule Type Limits Name input -- will not be validated.\n   ** Warning ** ProcessScheduleInput: Schedule:Year=\"SCHEDULE RULESET 57\", Blank Schedule Type Limits Name input -- will not be validated.\n   ** Warning ** ProcessScheduleInput: Schedule:Year=\"SCHEDULE RULESET 58\", Blank Schedule Type Limits Name input -- will not be validated.\n   ** Warning ** ProcessScheduleInput: Schedule:Year=\"SCHEDULE RULESET 59\", Blank Schedule Type Limits Name input -- will not be validated.\n   ** Warning ** ProcessScheduleInput: Schedule:Year=\"SCHEDULE RULESET 6\", Blank Schedule Type Limits Name input -- will not be validated.\n   ** Warning ** ProcessScheduleInput: Schedule:Year=\"SCHEDULE RULESET 7\", Blank Schedule Type Limits Name input -- will not be validated.\n   ** Warning ** ProcessScheduleInput: Schedule:Year=\"SCHEDULE RULESET 8\", Blank Schedule Type Limits Name input -- will not be validated.\n   ** Warning ** ProcessScheduleInput: Schedule:Year=\"SCHEDULE RULESET 9\", Blank Schedule Type Limits Name input -- will not be validated.\n   ** Warning ** ProcessScheduleInput: Schedule:Constant=\"ALWAYS ON CONTINUOUS\", Blank Schedule Type Limits Name input -- will not be validated.\n   ** Warning ** CheckUsedConstructions: There are 14 nominally unused constructions in input.\n   **   ~~~   ** For explicit details on each unused construction, use Output:Diagnostics,DisplayExtraWarnings;\n   ** Warning ** GetInternalHeatGains: ElectricEquipment Combination of ZoneList and Object Name generate a name too long.\n   **   ~~~   ** Object Name=\"SPACE FUNCTION ELECTRICAL/MECHANICAL ROOM-SCH-A ELEC EQUIP\".\n   **   ~~~   ** ZoneList/Zone Name=\"SP-BASEMENT SYS-6 FLR-1 SCH-A HPLCMT-NORTH ZN\".\n   **   ~~~   ** Item length=[103] > Maximum Length=[100]. You may need to shorten the names.\n   **   ~~~   ** Shortening the Object Name by [4] characters will assure uniqueness for this ZoneList.\n   **   ~~~   ** name that will be used (may be needed in reporting)=\"SP-BASEMENT SYS-6 FLR-1 SCH-A HPLCMT-NORTH ZN SPACE FUNCTION ELECTRICAL/MECHANICAL ROOM-SCH-A ELEC EQUIP\".\n   ** Warning ** GetInternalHeatGains: ElectricEquipment Combination of ZoneList and Object Name generate a name too long.\n   **   ~~~   ** Object Name=\"SPACE FUNCTION OFFICE OPEN PLAN ELEC EQUIP\".\n   **   ~~~   ** ZoneList/Zone Name=\"SP-DATACENTER_BASEMENT_ZN_6 SYS-6 FLR-1 SCH-A HPLCMT-WEST ZN\".\n   **   ~~~   ** Item length=[102] > Maximum Length=[100]. You may need to shorten the names.\n   **   ~~~   ** Shortening the Object Name by [3] characters will assure uniqueness for this ZoneList.\n   **   ~~~   ** name that will be used (may be needed in reporting)=\"SP-DATACENTER_BASEMENT_ZN_6 SYS-6 FLR-1 SCH-A HPLCMT-WEST ZN SPACE FUNCTION OFFICE OPEN PLAN ELEC EQUIP\".\n   ** Warning ** Calculated design heating load for zone=SP-BASEMENT SYS-6 FLR-1 SCH-A HPLCMT-NORTH ZN is zero.\n   **   ~~~   ** Check Sizing:Zone and ZoneControl:Thermostat inputs.\n   ** Warning ** Calculated design heating load for zone=SP-CORE_BOTTOM SYS-6 FLR-2 SCH-A HPLCMT-CORE ZN is zero.\n   **   ~~~   ** Check Sizing:Zone and ZoneControl:Thermostat inputs.\n   ** Warning ** Calculated design heating load for zone=SP-CORE_MID SYS-6 FLR-3 SCH-A HPLCMT-CORE ZN is zero.\n   **   ~~~   ** Check Sizing:Zone and ZoneControl:Thermostat inputs.\n   ** Warning ** Calculated design heating load for zone=SP-DATACENTER_BASEMENT_ZN_6 SYS-6 FLR-1 SCH-A HPLCMT-WEST ZN is zero.\n   **   ~~~   ** Check Sizing:Zone and ZoneControl:Thermostat inputs.\n   ** Warning ** Calculated design heating load for zone=SP-DATACENTER_BOT_ZN_6 SYS-6 FLR-2 SCH-A HPLCMT-CORE ZN is zero.\n   **   ~~~   ** Check Sizing:Zone and ZoneControl:Thermostat inputs.\n   ************* Beginning System Sizing Calculations\n   ** Warning ** Since Zone Minimum Air Flow Input Method = CONSTANT, input for Fixed Minimum Air Flow Rate will be ignored.\n   **   ~~~   ** Occurs in AirTerminal:SingleDuct:VAV:Reheat = AIR TERMINAL SINGLE DUCT VAV REHEAT 1\n   ** Warning ** Since Damper Heating Action = NORMAL, input for Maximum Flow Fraction During Reheat will be ignored.\n   **   ~~~   ** Occurs in AirTerminal:SingleDuct:VAV:Reheat = AIR TERMINAL SINGLE DUCT VAV REHEAT 1\n   ** Warning ** Since Zone Minimum Air Flow Input Method = CONSTANT, input for Fixed Minimum Air Flow Rate will be ignored.\n   **   ~~~   ** Occurs in AirTerminal:SingleDuct:VAV:Reheat = AIR TERMINAL SINGLE DUCT VAV REHEAT 3\n   ** Warning ** Since Damper Heating Action = NORMAL, input for Maximum Flow Fraction During Reheat will be ignored.\n   **   ~~~   ** Occurs in AirTerminal:SingleDuct:VAV:Reheat = AIR TERMINAL SINGLE DUCT VAV REHEAT 3\n   ** Warning ** Since Zone Minimum Air Flow Input Method = CONSTANT, input for Fixed Minimum Air Flow Rate will be ignored.\n   **   ~~~   ** Occurs in AirTerminal:SingleDuct:VAV:Reheat = AIR TERMINAL SINGLE DUCT VAV REHEAT 9\n   ** Warning ** Since Damper Heating Action = NORMAL, input for Maximum Flow Fraction During Reheat will be ignored.\n   **   ~~~   ** Occurs in AirTerminal:SingleDuct:VAV:Reheat = AIR TERMINAL SINGLE DUCT VAV REHEAT 9\n   ** Warning ** Since Zone Minimum Air Flow Input Method = CONSTANT, input for Fixed Minimum Air Flow Rate will be ignored.\n   **   ~~~   ** Occurs in AirTerminal:SingleDuct:VAV:Reheat = AIR TERMINAL SINGLE DUCT VAV REHEAT 15\n   ** Warning ** Since Damper Heating Action = NORMAL, input for Maximum Flow Fraction During Reheat will be ignored.\n   **   ~~~   ** Occurs in AirTerminal:SingleDuct:VAV:Reheat = AIR TERMINAL SINGLE DUCT VAV REHEAT 15\n   ** Warning ** Since Zone Minimum Air Flow Input Method = CONSTANT, input for Fixed Minimum Air Flow Rate will be ignored.\n   **   ~~~   ** Occurs in AirTerminal:SingleDuct:VAV:Reheat = AIR TERMINAL SINGLE DUCT VAV REHEAT 2\n   ** Warning ** Since Damper Heating Action = NORMAL, input for Maximum Flow Fraction During Reheat will be ignored.\n   **   ~~~   ** Occurs in AirTerminal:SingleDuct:VAV:Reheat = AIR TERMINAL SINGLE DUCT VAV REHEAT 2\n   ** Warning ** Since Zone Minimum Air Flow Input Method = CONSTANT, input for Fixed Minimum Air Flow Rate will be ignored.\n   **   ~~~   ** Occurs in AirTerminal:SingleDuct:VAV:Reheat = AIR TERMINAL SINGLE DUCT VAV REHEAT 4\n   ** Warning ** Since Damper Heating Action = NORMAL, input for Maximum Flow Fraction During Reheat will be ignored.\n   **   ~~~   ** Occurs in AirTerminal:SingleDuct:VAV:Reheat = AIR TERMINAL SINGLE DUCT VAV REHEAT 4\n   ** Warning ** Since Zone Minimum Air Flow Input Method = CONSTANT, input for Fixed Minimum Air Flow Rate will be ignored.\n   **   ~~~   ** Occurs in AirTerminal:SingleDuct:VAV:Reheat = AIR TERMINAL SINGLE DUCT VAV REHEAT 10\n   ** Warning ** Since Damper Heating Action = NORMAL, input for Maximum Flow Fraction During Reheat will be ignored.\n   **   ~~~   ** Occurs in AirTerminal:SingleDuct:VAV:Reheat = AIR TERMINAL SINGLE DUCT VAV REHEAT 10\n   ** Warning ** Since Zone Minimum Air Flow Input Method = CONSTANT, input for Fixed Minimum Air Flow Rate will be ignored.\n   **   ~~~   ** Occurs in AirTerminal:SingleDuct:VAV:Reheat = AIR TERMINAL SINGLE DUCT VAV REHEAT 16\n   ** Warning ** Since Damper Heating Action = NORMAL, input for Maximum Flow Fraction During Reheat will be ignored.\n   **   ~~~   ** Occurs in AirTerminal:SingleDuct:VAV:Reheat = AIR TERMINAL SINGLE DUCT VAV REHEAT 16\n   ** Warning ** Since Zone Minimum Air Flow Input Method = CONSTANT, input for Fixed Minimum Air Flow Rate will be ignored.\n   **   ~~~   ** Occurs in AirTerminal:SingleDuct:VAV:Reheat = AIR TERMINAL SINGLE DUCT VAV REHEAT 5\n   ** Warning ** Since Damper Heating Action = NORMAL, input for Maximum Flow Fraction During Reheat will be ignored.\n   **   ~~~   ** Occurs in AirTerminal:SingleDuct:VAV:Reheat = AIR TERMINAL SINGLE DUCT VAV REHEAT 5\n   ** Warning ** Since Zone Minimum Air Flow Input Method = CONSTANT, input for Fixed Minimum Air Flow Rate will be ignored.\n   **   ~~~   ** Occurs in AirTerminal:SingleDuct:VAV:Reheat = AIR TERMINAL SINGLE DUCT VAV REHEAT 6\n   ** Warning ** Since Damper Heating Action = NORMAL, input for Maximum Flow Fraction During Reheat will be ignored.\n   **   ~~~   ** Occurs in AirTerminal:SingleDuct:VAV:Reheat = AIR TERMINAL SINGLE DUCT VAV REHEAT 6\n   ** Warning ** Since Zone Minimum Air Flow Input Method = CONSTANT, input for Fixed Minimum Air Flow Rate will be ignored.\n   **   ~~~   ** Occurs in AirTerminal:SingleDuct:VAV:Reheat = AIR TERMINAL SINGLE DUCT VAV REHEAT 7\n   ** Warning ** Since Damper Heating Action = NORMAL, input for Maximum Flow Fraction During Reheat will be ignored.\n   **   ~~~   ** Occurs in AirTerminal:SingleDuct:VAV:Reheat = AIR TERMINAL SINGLE DUCT VAV REHEAT 7\n   ** Warning ** Since Zone Minimum Air Flow Input Method = CONSTANT, input for Fixed Minimum Air Flow Rate will be ignored.\n   **   ~~~   ** Occurs in AirTerminal:SingleDuct:VAV:Reheat = AIR TERMINAL SINGLE DUCT VAV REHEAT 8\n   ** Warning ** Since Damper Heating Action = NORMAL, input for Maximum Flow Fraction During Reheat will be ignored.\n   **   ~~~   ** Occurs in AirTerminal:SingleDuct:VAV:Reheat = AIR TERMINAL SINGLE DUCT VAV REHEAT 8\n   ** Warning ** Since Zone Minimum Air Flow Input Method = CONSTANT, input for Fixed Minimum Air Flow Rate will be ignored.\n   **   ~~~   ** Occurs in AirTerminal:SingleDuct:VAV:Reheat = AIR TERMINAL SINGLE DUCT VAV REHEAT 11\n   ** Warning ** Since Damper Heating Action = NORMAL, input for Maximum Flow Fraction During Reheat will be ignored.\n   **   ~~~   ** Occurs in AirTerminal:SingleDuct:VAV:Reheat = AIR TERMINAL SINGLE DUCT VAV REHEAT 11\n   ** Warning ** Since Zone Minimum Air Flow Input Method = CONSTANT, input for Fixed Minimum Air Flow Rate will be ignored.\n   **   ~~~   ** Occurs in AirTerminal:SingleDuct:VAV:Reheat = AIR TERMINAL SINGLE DUCT VAV REHEAT 12\n   ** Warning ** Since Damper Heating Action = NORMAL, input for Maximum Flow Fraction During Reheat will be ignored.\n   **   ~~~   ** Occurs in AirTerminal:SingleDuct:VAV:Reheat = AIR TERMINAL SINGLE DUCT VAV REHEAT 12\n   ** Warning ** Since Zone Minimum Air Flow Input Method = CONSTANT, input for Fixed Minimum Air Flow Rate will be ignored.\n   **   ~~~   ** Occurs in AirTerminal:SingleDuct:VAV:Reheat = AIR TERMINAL SINGLE DUCT VAV REHEAT 13\n   ** Warning ** Since Damper Heating Action = NORMAL, input for Maximum Flow Fraction During Reheat will be ignored.\n   **   ~~~   ** Occurs in AirTerminal:SingleDuct:VAV:Reheat = AIR TERMINAL SINGLE DUCT VAV REHEAT 13\n   ** Warning ** Since Zone Minimum Air Flow Input Method = CONSTANT, input for Fixed Minimum Air Flow Rate will be ignored.\n   **   ~~~   ** Occurs in AirTerminal:SingleDuct:VAV:Reheat = AIR TERMINAL SINGLE DUCT VAV REHEAT 14\n   ** Warning ** Since Damper Heating Action = NORMAL, input for Maximum Flow Fraction During Reheat will be ignored.\n   **   ~~~   ** Occurs in AirTerminal:SingleDuct:VAV:Reheat = AIR TERMINAL SINGLE DUCT VAV REHEAT 14\n   ** Warning ** Since Zone Minimum Air Flow Input Method = CONSTANT, input for Fixed Minimum Air Flow Rate will be ignored.\n   **   ~~~   ** Occurs in AirTerminal:SingleDuct:VAV:Reheat = AIR TERMINAL SINGLE DUCT VAV REHEAT 17\n   ** Warning ** Since Damper Heating Action = NORMAL, input for Maximum Flow Fraction During Reheat will be ignored.\n   **   ~~~   ** Occurs in AirTerminal:SingleDuct:VAV:Reheat = AIR TERMINAL SINGLE DUCT VAV REHEAT 17\n   ** Warning ** Since Zone Minimum Air Flow Input Method = CONSTANT, input for Fixed Minimum Air Flow Rate will be ignored.\n   **   ~~~   ** Occurs in AirTerminal:SingleDuct:VAV:Reheat = AIR TERMINAL SINGLE DUCT VAV REHEAT 18\n   ** Warning ** Since Damper Heating Action = NORMAL, input for Maximum Flow Fraction During Reheat will be ignored.\n   **   ~~~   ** Occurs in AirTerminal:SingleDuct:VAV:Reheat = AIR TERMINAL SINGLE DUCT VAV REHEAT 18\n   ** Warning ** Since Zone Minimum Air Flow Input Method = CONSTANT, input for Fixed Minimum Air Flow Rate will be ignored.\n   **   ~~~   ** Occurs in AirTerminal:SingleDuct:VAV:Reheat = AIR TERMINAL SINGLE DUCT VAV REHEAT 19\n   ** Warning ** Since Damper Heating Action = NORMAL, input for Maximum Flow Fraction During Reheat will be ignored.\n   **   ~~~   ** Occurs in AirTerminal:SingleDuct:VAV:Reheat = AIR TERMINAL SINGLE DUCT VAV REHEAT 19\n   ** Warning ** Since Zone Minimum Air Flow Input Method = CONSTANT, input for Fixed Minimum Air Flow Rate will be ignored.\n   **   ~~~   ** Occurs in AirTerminal:SingleDuct:VAV:Reheat = AIR TERMINAL SINGLE DUCT VAV REHEAT 20\n   ** Warning ** Since Damper Heating Action = NORMAL, input for Maximum Flow Fraction During Reheat will be ignored.\n   **   ~~~   ** Occurs in AirTerminal:SingleDuct:VAV:Reheat = AIR TERMINAL SINGLE DUCT VAV REHEAT 20\n   ************* Beginning Plant Sizing Calculations\n   ** Warning ** GetVarSpeedCoilInput: COIL:HEATING:DX:VARIABLESPEED=\"SYS_6_VAV WITH REHEAT CCASHP DX HTG COIL\", \n   **   ~~~   ** ...Minimum Outdoor Dry-Bulb Temperature for Compressor Operation = 0.0 for defrost control = TIMED.\n   ** Warning ** GetVarSpeedCoilInput: COIL:HEATING:DX:VARIABLESPEED=\"SYS_6_VAV WITH REHEAT 1 CCASHP DX HTG COIL\", \n   **   ~~~   ** ...Minimum Outdoor Dry-Bulb Temperature for Compressor Operation = 0.0 for defrost control = TIMED.\n   ** Warning ** GetVarSpeedCoilInput: COIL:HEATING:DX:VARIABLESPEED=\"SYS_6_VAV WITH REHEAT 2 CCASHP DX HTG COIL\", \n   **   ~~~   ** ...Minimum Outdoor Dry-Bulb Temperature for Compressor Operation = 0.0 for defrost control = TIMED.\n   ** Warning ** GetVarSpeedCoilInput: COIL:HEATING:DX:VARIABLESPEED=\"SYS_6_VAV WITH REHEAT 3 CCASHP DX HTG COIL\", \n   **   ~~~   ** ...Minimum Outdoor Dry-Bulb Temperature for Compressor Operation = 0.0 for defrost control = TIMED.\n   ** Warning ** Output:Meter: invalid Key Name=\"GAS:FACILITY\" - not found.\n   ** Warning ** Output:Meter: invalid Key Name=\"DISTRICTCOOLING:FACILITY\" - not found.\n   ** Warning ** Output:Meter: invalid Key Name=\"DISTRICTHEATING:FACILITY\" - not found.\n   ** Warning ** Output:Meter:MeterFileOnly: invalid Key Name=\"GAS:FACILITY\" - not found.\n   ** Warning ** Output:Meter:MeterFileOnly requested for \"Electricity:Facility\" (TimeStep), already on \"Output:Meter\". Will report to both eplusout.eso and eplusout.mtr\n   ************* Testing Individual Branch Integrity\n   ************* All Branches passed integrity testing\n   ************* Testing Individual Supply Air Path Integrity\n   ************* All Supply Air Paths passed integrity testing\n   ************* Testing Individual Return Air Path Integrity\n   ************* All Return Air Paths passed integrity testing\n   ************* No node connection errors were found.\n   ************* Beginning Simulation\n   ** Severe  ** CheckWarmupConvergence: Loads Initialization, Zone=\"SP-CORE_MID SYS-6 FLR-3 SCH-A HPLCMT-CORE ZN\" did not converge after 25 warmup days.\n   **   ~~~   ** See Warmup Convergence Information in .eio file for details.\n   **   ~~~   ** ...Environment(RunPeriod)=\"RUN PERIOD 1\"\n   **   ~~~   ** ..Max Temp Comparison = 2.73E-002 vs Temperature Convergence Tolerance=0.20 - Pass Convergence\n   **   ~~~   ** ..Min Temp Comparison = 0.31 vs Temperature Convergence Tolerance=0.20 - Fail Convergence\n   **   ~~~   ** ..Max Heat Load Comparison = 0.0000 vs Loads Convergence Tolerance=4.00E-002 - Pass Convergence\n   **   ~~~   ** ..Max Cool Load Comparison = 2.7024E-003 vs Loads Convergence Tolerance=4.00E-002 - Pass Convergence\n   ** Severe  ** CheckWarmupConvergence: Loads Initialization, Zone=\"SP-DATACENTER_MID_ZN_6 SYS-6 FLR-3 SCH-A HPLCMT-CORE ZN\" did not converge after 25 warmup days.\n   **   ~~~   ** ...Environment(RunPeriod)=\"RUN PERIOD 1\"\n   **   ~~~   ** ..Max Temp Comparison = 0.48 vs Temperature Convergence Tolerance=0.20 - Fail Convergence\n   **   ~~~   ** ..Min Temp Comparison = 6.54E-002 vs Temperature Convergence Tolerance=0.20 - Pass Convergence\n   **   ~~~   ** ..Max Heat Load Comparison = 1.8392E-003 vs Loads Convergence Tolerance=4.00E-002 - Pass Convergence\n   **   ~~~   ** ..Max Cool Load Comparison = 7.7729E-003 vs Loads Convergence Tolerance=4.00E-002 - Pass Convergence\n   ** Severe  ** CheckWarmupConvergence: Loads Initialization, Zone=\"SP-PERIMETER_MID_ZN_3 SYS-6 FLR-3 SCH-A HPLCMT-NORTH ZN\" did not converge after 25 warmup days.\n   **   ~~~   ** ...Environment(RunPeriod)=\"RUN PERIOD 1\"\n   **   ~~~   ** ..Max Temp Comparison = 0.22 vs Temperature Convergence Tolerance=0.20 - Fail Convergence\n   **   ~~~   ** ..Min Temp Comparison = 0.00 vs Temperature Convergence Tolerance=0.20 - Pass Convergence\n   **   ~~~   ** ..Max Heat Load Comparison = 0.1601 vs Loads Convergence Tolerance=4.00E-002 - Fail Convergence\n   **   ~~~   ** ..Max Cool Load Comparison = 3.4035E-003 vs Loads Convergence Tolerance=4.00E-002 - Pass Convergence\n   ** Severe  ** CheckWarmupConvergence: Loads Initialization, Zone=\"SP-PERIMETER_MID_ZN_4 SYS-6 FLR-3 SCH-A HPLCMT-WEST ZN\" did not converge after 25 warmup days.\n   **   ~~~   ** ...Environment(RunPeriod)=\"RUN PERIOD 1\"\n   **   ~~~   ** ..Max Temp Comparison = 0.66 vs Temperature Convergence Tolerance=0.20 - Fail Convergence\n   **   ~~~   ** ..Min Temp Comparison = 0.00 vs Temperature Convergence Tolerance=0.20 - Pass Convergence\n   **   ~~~   ** ..Max Heat Load Comparison = 9.2516E-002 vs Loads Convergence Tolerance=4.00E-002 - Fail Convergence\n   **   ~~~   ** ..Max Cool Load Comparison = 0.3200 vs Loads Convergence Tolerance=4.00E-002 - Fail Convergence\n   ** Warning ** Processing Monthly Tabular Reports: Variable names not valid for this simulation\n   **   ~~~   ** ...use Output:Diagnostics,DisplayExtraWarnings; to show more details on individual variables.\n   ** Warning ** GetInputEconomicsTariff: UtilityCost:Tariff=\"FORTISBC\" missing meter\n   **   ~~~   ** Meter referenced is not present due to a lack of equipment that uses that energy source/meter:\"GAS:FACILITY\".\n   ** Warning ** GetInputEconomicsTariff: UtilityCost:Tariff=\"NONEOIL\" missing meter\n   **   ~~~   ** Meter referenced is not present due to a lack of equipment that uses that energy source/meter:\"FUELOIL#2:FACILITY\".\n   ** Warning ** SimHVAC: Maximum iterations (20) exceeded for all HVAC loops, at RUN PERIOD 1, 05/10 20:30 - 20:34\n   **   ~~~   ** The solution for one or more of the Air Loop HVAC systems did not appear to converge\n   **   ~~~   ** ...use Output:Diagnostics,DisplayExtraWarnings; to show more details on each max iteration exceeded.\n   ** Warning ** SimHVAC: Maximum iterations (20) exceeded for all HVAC loops, at RUN PERIOD 1, 07/24 08:11 - 08:15\n   **   ~~~   ** The solution for one or more of the Air Loop HVAC systems did not appear to converge\n   ** Warning ** SimHVAC: Maximum iterations (20) exceeded for all HVAC loops, at RUN PERIOD 1, 07/25 08:40 - 08:45\n   **   ~~~   ** The solution for one or more of the Air Loop HVAC systems did not appear to converge\n   ** Warning ** The resource referenced by LifeCycleCost:UsePriceEscalation= \"U.S. AVG  COMMERCIAL-DISTILLATE OIL\" has no energy cost. \n   **   ~~~   ** ... It is likely that the wrong resource is used. The resource should match the meter used in Utility:Tariff.\n   ** Warning ** The resource referenced by LifeCycleCost:UsePriceEscalation= \"U.S. AVG  COMMERCIAL-RESIDUAL OIL\" has no energy cost. \n   **   ~~~   ** ... It is likely that the wrong resource is used. The resource should match the meter used in Utility:Tariff.\n   ** Warning ** The resource referenced by LifeCycleCost:UsePriceEscalation= \"U.S. AVG  COMMERCIAL-NATURAL GAS\" has no energy cost. \n   **   ~~~   ** ... It is likely that the wrong resource is used. The resource should match the meter used in Utility:Tariff.\n   ** Warning ** The resource referenced by LifeCycleCost:UsePriceEscalation= \"U.S. AVG  COMMERCIAL-COAL\" has no energy cost. \n   **   ~~~   ** ... It is likely that the wrong resource is used. The resource should match the meter used in Utility:Tariff.\n   ************* Simulation Error Summary *************\n   ************* There are 11 unused schedules in input.\n   ************* There are 11 unused week schedules in input.\n   ************* There are 34 unused day schedules in input.\n   ************* Use Output:Diagnostics,DisplayUnusedSchedules; to see them.\n   *************\n   ************* ===== Final Error Summary =====\n   ************* The following error categories occurred.  Consider correcting or noting.\n   ************* Loads Initialization did not Converge\n   ************* ..1) very high thermal mass such as very thick concrete (solution: increase max number of warmup\n   ************* ..   days in the BUILDING object);\n   ************* ..2) moderate mass and inadequate space conditioning such that the building keeps getting warmer\n   ************* ..   and warmer on successive days (solution: add HVAC, check building thermal properties,\n   ************* ..   check if infiltration is included, make sure HVAC properly controlled);\n   ************* ..3) a soil layer modeled below the concrete slab - (solution remove this layer and read about\n   ************* ..   ground temperatures in the Auxiliary Programs document).\n   ************* ..4) unreasonable (too small) limits in the BUILDING object for temperature (.4 default) or\n   ************* ..   loads tolerances (.04 default)\n   ************* Nominally Unused Constructions\n   ************* ..The nominally unused constructions warning is provided to alert you to potential conditions that can cause\n   ************* ..extra time during simulation. Each construction is calculated by the algorithm indicated in the HeatBalanceAlgorithm\n   ************* ..object. You may remove the constructions indicated (when you use the DisplayExtraWarnings option).\n   *************\n   ************* EnergyPlus Warmup Error Summary. During Warmup: 0 Warning; 4 Severe Errors.\n   ************* EnergyPlus Sizing Error Summary. During Sizing: 175 Warning; 0 Severe Errors.\n   ************* EnergyPlus Completed Successfully-- 194 Warning; 4 Severe Errors; Elapsed Time=00hr 01min 28.20sec\n",
   "file_format_version" : "0.0.1",
   "file_paths" : [ "../weather", "../seeds", "../seed" ],
   "hash" : "74B06B7D",
   "measure_paths" : [ "../measures" ],
   "name" : "DOE Autogenerated 10",
   "osa_id" : "68c8b576-a9a1-447a-a2db-fd41b0db3a06",
   "osd_id" : "0b724e85-8080-4ae0-8e4b-8ddd244bdc20",
   "run_directory" : "./run",
   "seed_file" : "dummy.osm",
   "started_at" : "20190517T152144Z",
   "steps" : [
      {
         "arguments" : {
            "building_type" : "LargeOffice",
            "epw_file" : "CAN_BC_Vancouver.Intl.AP.718920_CWEC2016.epw",
            "new_auto_zoner" : true,
            "template" : "NECB2017"
         },
         "description" : "This measure creates an NECB prototype building from scratch and uses it as the base for an analysis.",
         "measure_dir_name" : "btap_create_necb_prototype_building",
         "name" : "btap_create_necb_prototype_building",
         "result" : {
            "completed_at" : "20190517T152348Z",
            "measure_class_name" : "BTAPCreateNECBPrototypeBuilding",
            "measure_display_name" : "BTAPCreateNECBPrototypeBuilding",
            "measure_name" : "btap_create_necb_prototype_building",
            "measure_taxonomy" : "Whole Building.Space Types",
            "measure_type" : "ModelMeasure",
            "measure_uid" : "3e9acd53-8602-4749-a655-7cbbe48e8b30",
            "measure_version_id" : "fce385ec-90b4-4b1d-9950-ad7bead32503",
            "measure_version_modified" : "20190401T145206Z",
            "measure_xml_checksum" : "2C38F48B",
            "started_at" : "20190517T152144Z",
            "stderr" : "",
            "stdout" : "[OpenStudio.Measure] <0> OSArgumentVector is deprecated, use OpenStudio::Measure::OSArgumentVector instead.\n[openstudio.EpwFile] <0> Successive data points (2011-Jan-31 to 2000-Feb-01, ending on line 753) are greater than 1 day apart in EPW file '/usr/local/lib/ruby/gems/2.2.0/bundler/gems/openstudio-standards-f0e9e7df79cf/data/weather/CAN_BC_Vancouver.Intl.AP.718920_CWEC2016.epw'. Data will be treated as typical (TMY)\n[openstudio.setFileExtension] <0> Path p, '/usr/local/lib/ruby/gems/2.2.0/bundler/gems/openstudio-standards-f0e9e7df79cf/data/weather/CAN_BC_Vancouver.Intl.AP.718920_CWEC2016.ddy', has an unexpected file extension. Was expecting 'idf'.\n[openstudio.setFileExtension] <0> Path p, '/usr/local/lib/ruby/gems/2.2.0/bundler/gems/openstudio-standards-f0e9e7df79cf/data/weather/CAN_BC_Vancouver.Intl.AP.718920_CWEC2016.ddy', has an unexpected file extension. Was expecting 'idf'.\n[openstudio.EpwFile] <0> Successive data points (2011-Jan-31 to 2000-Feb-01, ending on line 753) are greater than 1 day apart in EPW file '/usr/local/lib/ruby/gems/2.2.0/bundler/gems/openstudio-standards-f0e9e7df79cf/data/weather/CAN_BC_Vancouver.Intl.AP.718920_CWEC2016.epw'. Data will be treated as typical (TMY)\n[openstudio.setFileExtension] <0> Path p, '/usr/local/lib/ruby/gems/2.2.0/bundler/gems/openstudio-standards-f0e9e7df79cf/data/weather/CAN_BC_Vancouver.Intl.AP.718920_CWEC2016.ddy', has an unexpected file extension. Was expecting 'idf'.\n[openstudio.weather.Model] <0> Could not find ground temperatures; will use generic temperatures, which will skew results.\n[openstudio.EpwFile] <0> Successive data points (2011-Jan-31 to 2000-Feb-01, ending on line 753) are greater than 1 day apart in EPW file '/usr/local/lib/ruby/gems/2.2.0/bundler/gems/openstudio-standards-f0e9e7df79cf/data/weather/CAN_BC_Vancouver.Intl.AP.718920_CWEC2016.epw'. Data will be treated as typical (TMY)\n[openstudio.setFileExtension] <0> Path p, '/usr/local/lib/ruby/gems/2.2.0/bundler/gems/openstudio-standards-f0e9e7df79cf/data/weather/CAN_BC_Vancouver.Intl.AP.718920_CWEC2016.ddy', has an unexpected file extension. Was expecting 'idf'.\n[openstudio.setFileExtension] <0> Path p, '/usr/local/lib/ruby/gems/2.2.0/bundler/gems/openstudio-standards-f0e9e7df79cf/data/weather/CAN_BC_Vancouver.Intl.AP.718920_CWEC2016.ddy', has an unexpected file extension. Was expecting 'idf'.\n[openstudio.EpwFile] <0> Successive data points (2011-Jan-31 to 2000-Feb-01, ending on line 753) are greater than 1 day apart in EPW file '/usr/local/lib/ruby/gems/2.2.0/bundler/gems/openstudio-standards-f0e9e7df79cf/data/weather/CAN_BC_Vancouver.Intl.AP.718920_CWEC2016.epw'. Data will be treated as typical (TMY)\n[openstudio.setFileExtension] <0> Path p, '/usr/local/lib/ruby/gems/2.2.0/bundler/gems/openstudio-standards-f0e9e7df79cf/data/weather/CAN_BC_Vancouver.Intl.AP.718920_CWEC2016.ddy', has an unexpected file extension. Was expecting 'idf'.\n[openstudio.setFileExtension] <0> Path p, '/usr/local/lib/ruby/gems/2.2.0/bundler/gems/openstudio-standards-f0e9e7df79cf/data/weather/CAN_BC_Vancouver.Intl.AP.718920_CWEC2016.ddy', has an unexpected file extension. Was expecting 'idf'.\n[utilities.idf.WorkspaceObject] <0> Object of type 'Schedule:Constant' and named 'Always Off Discrete', points to an object named OnOff 1 from field 1, but that object cannot be located.\n[utilities.idf.WorkspaceObject] <0> Object of type 'Schedule:Constant' and named 'Always On Continuous', points to an object named Fractional 1 from field 1, but that object cannot be located.\n[openstudio.EpwFile] <0> Successive data points (2011-Jan-31 to 2000-Feb-01, ending on line 753) are greater than 1 day apart in EPW file '/usr/local/lib/ruby/gems/2.2.0/bundler/gems/openstudio-standards-f0e9e7df79cf/data/weather/CAN_BC_Vancouver.Intl.AP.718920_CWEC2016.epw'. Data will be treated as typical (TMY)\n[openstudio.setFileExtension] <0> Path p, '/usr/local/lib/ruby/gems/2.2.0/bundler/gems/openstudio-standards-f0e9e7df79cf/data/weather/CAN_BC_Vancouver.Intl.AP.718920_CWEC2016.ddy', has an unexpected file extension. Was expecting 'idf'.\n[openstudio.setFileExtension] <0> Path p, '/usr/local/lib/ruby/gems/2.2.0/bundler/gems/openstudio-standards-f0e9e7df79cf/data/weather/CAN_BC_Vancouver.Intl.AP.718920_CWEC2016.ddy', has an unexpected file extension. Was expecting 'idf'.\n[openstudio.model.ChillerElectricEIR] <0> Cannot set condenserType to 'WaterCooled', chiller 'Chiller Electric EIR 1' is not connected to a secondaryPlantLoop\n[openstudio.model.ChillerElectricEIR] <0> Cannot set condenserType to 'WaterCooled', chiller 'Chiller Electric EIR 2' is not connected to a secondaryPlantLoop\n[openstudio.EpwFile] <0> Successive data points (2011-Jan-31 to 2000-Feb-01, ending on line 753) are greater than 1 day apart in EPW file '/usr/local/lib/ruby/gems/2.2.0/bundler/gems/openstudio-standards-f0e9e7df79cf/data/weather/CAN_BC_Vancouver.Intl.AP.718920_CWEC2016.epw'. Data will be treated as typical (TMY)\n[openstudio.setFileExtension] <0> Path p, '/usr/local/lib/ruby/gems/2.2.0/bundler/gems/openstudio-standards-f0e9e7df79cf/data/weather/CAN_BC_Vancouver.Intl.AP.718920_CWEC2016.ddy', has an unexpected file extension. Was expecting 'idf'.\n[openstudio.setFileExtension] <0> Path p, '/usr/local/lib/ruby/gems/2.2.0/bundler/gems/openstudio-standards-f0e9e7df79cf/data/weather/CAN_BC_Vancouver.Intl.AP.718920_CWEC2016.ddy', has an unexpected file extension. Was expecting 'idf'.\n[utilities.idf.WorkspaceObject] <0> Object of type 'Schedule:Constant' and named 'Always Off Discrete', points to an object named OnOff 1 from field 1, but that object cannot be located.\n[utilities.idf.WorkspaceObject] <0> Object of type 'Schedule:Constant' and named 'Always On Continuous', points to an object named Fractional 1 from field 1, but that object cannot be located.\n[openstudio.standards.Fan] <0> For Sys6 Return Fan, there is no greater nominal HP.  Use the efficiency of the largest motor category.\n[openstudio.standards.Fan] <0> For Sys6 Return Fan 1, there is no greater nominal HP.  Use the efficiency of the largest motor category.\n[openstudio.standards.Fan] <0> For Sys6 Return Fan 2, there is no greater nominal HP.  Use the efficiency of the largest motor category.\n[openstudio.standards.Fan] <0> For Sys6 Return Fan 3, there is no greater nominal HP.  Use the efficiency of the largest motor category.\n[openstudio.standards.Fan] <0> For Sys6 Supply Fan, there is no greater nominal HP.  Use the efficiency of the largest motor category.\n[openstudio.standards.Fan] <0> For Sys6 Supply Fan 1, there is no greater nominal HP.  Use the efficiency of the largest motor category.\n[openstudio.standards.Fan] <0> For Sys6 Supply Fan 2, there is no greater nominal HP.  Use the efficiency of the largest motor category.\n[openstudio.standards.Fan] <0> For Sys6 Supply Fan 3, there is no greater nominal HP.  Use the efficiency of the largest motor category.\n[openstudio.EpwFile] <0> Successive data points (2011-Jan-31 to 2000-Feb-01, ending on line 753) are greater than 1 day apart in EPW file '/usr/local/lib/ruby/gems/2.2.0/bundler/gems/openstudio-standards-f0e9e7df79cf/data/weather/CAN_BC_Vancouver.Intl.AP.718920_CWEC2016.epw'. Data will be treated as typical (TMY)\n[openstudio.setFileExtension] <0> Path p, '/usr/local/lib/ruby/gems/2.2.0/bundler/gems/openstudio-standards-f0e9e7df79cf/data/weather/CAN_BC_Vancouver.Intl.AP.718920_CWEC2016.ddy', has an unexpected file extension. Was expecting 'idf'.\n[openstudio.setFileExtension] <0> Path p, '/usr/local/lib/ruby/gems/2.2.0/bundler/gems/openstudio-standards-f0e9e7df79cf/data/weather/CAN_BC_Vancouver.Intl.AP.718920_CWEC2016.ddy', has an unexpected file extension. Was expecting 'idf'.\n[openstudio.EpwFile] <0> Successive data points (2011-Jan-31 to 2000-Feb-01, ending on line 753) are greater than 1 day apart in EPW file '/usr/local/lib/ruby/gems/2.2.0/bundler/gems/openstudio-standards-f0e9e7df79cf/data/weather/CAN_BC_Vancouver.Intl.AP.718920_CWEC2016.epw'. Data will be treated as typical (TMY)\n[openstudio.setFileExtension] <0> Path p, '/usr/local/lib/ruby/gems/2.2.0/bundler/gems/openstudio-standards-f0e9e7df79cf/data/weather/CAN_BC_Vancouver.Intl.AP.718920_CWEC2016.ddy', has an unexpected file extension. Was expecting 'idf'.\n[openstudio.setFileExtension] <0> Path p, '/usr/local/lib/ruby/gems/2.2.0/bundler/gems/openstudio-standards-f0e9e7df79cf/data/weather/CAN_BC_Vancouver.Intl.AP.718920_CWEC2016.ddy', has an unexpected file extension. Was expecting 'idf'.\n[openstudio.EpwFile] <0> Successive data points (2011-Jan-31 to 2000-Feb-01, ending on line 753) are greater than 1 day apart in EPW file '/usr/local/lib/ruby/gems/2.2.0/bundler/gems/openstudio-standards-f0e9e7df79cf/data/weather/CAN_BC_Vancouver.Intl.AP.718920_CWEC2016.epw'. Data will be treated as typical (TMY)\n[openstudio.setFileExtension] <0> Path p, '/usr/local/lib/ruby/gems/2.2.0/bundler/gems/openstudio-standards-f0e9e7df79cf/data/weather/CAN_BC_Vancouver.Intl.AP.718920_CWEC2016.ddy', has an unexpected file extension. Was expecting 'idf'.\n[openstudio.setFileExtension] <0> Path p, '/usr/local/lib/ruby/gems/2.2.0/bundler/gems/openstudio-standards-f0e9e7df79cf/data/weather/CAN_BC_Vancouver.Intl.AP.718920_CWEC2016.ddy', has an unexpected file extension. Was expecting 'idf'.\n[openstudio.EpwFile] <0> Successive data points (2011-Jan-31 to 2000-Feb-01, ending on line 753) are greater than 1 day apart in EPW file '/usr/local/lib/ruby/gems/2.2.0/bundler/gems/openstudio-standards-f0e9e7df79cf/data/weather/CAN_BC_Vancouver.Intl.AP.718920_CWEC2016.epw'. Data will be treated as typical (TMY)\n[openstudio.setFileExtension] <0> Path p, '/usr/local/lib/ruby/gems/2.2.0/bundler/gems/openstudio-standards-f0e9e7df79cf/data/weather/CAN_BC_Vancouver.Intl.AP.718920_CWEC2016.ddy', has an unexpected file extension. Was expecting 'idf'.\n[openstudio.setFileExtension] <0> Path p, '/usr/local/lib/ruby/gems/2.2.0/bundler/gems/openstudio-standards-f0e9e7df79cf/data/weather/CAN_BC_Vancouver.Intl.AP.718920_CWEC2016.ddy', has an unexpected file extension. Was expecting 'idf'.\n[openstudio.standards.Fan] <0> For Sys6 Return Fan, there is no greater nominal HP.  Use the efficiency of the largest motor category.\n[openstudio.standards.Fan] <0> For Sys6 Return Fan 1, there is no greater nominal HP.  Use the efficiency of the largest motor category.\n[openstudio.standards.Fan] <0> For Sys6 Return Fan 2, there is no greater nominal HP.  Use the efficiency of the largest motor category.\n[openstudio.standards.Fan] <0> For Sys6 Return Fan 3, there is no greater nominal HP.  Use the efficiency of the largest motor category.\n[openstudio.standards.Fan] <0> For Sys6 Supply Fan, there is no greater nominal HP.  Use the efficiency of the largest motor category.\n[openstudio.standards.Fan] <0> For Sys6 Supply Fan 1, there is no greater nominal HP.  Use the efficiency of the largest motor category.\n[openstudio.standards.Fan] <0> For Sys6 Supply Fan 2, there is no greater nominal HP.  Use the efficiency of the largest motor category.\n[openstudio.standards.Fan] <0> For Sys6 Supply Fan 3, there is no greater nominal HP.  Use the efficiency of the largest motor category.\n[openstudio.standards.CoolingTower] <0> For Cooling Tower Single Speed 1, cannot find heat rejection properties, cannot apply standard efficiencies or curves.\n[utilities.idf.WorkspaceObject] <0> Object of type 'Schedule:Constant' and named 'Always Off Discrete', points to an object named OnOff 1 from field 1, but that object cannot be located.\n[utilities.idf.WorkspaceObject] <0> Object of type 'Schedule:Constant' and named 'Always On Continuous', points to an object named Fractional 1 from field 1, but that object cannot be located.\n",
            "step_errors" : [],
            "step_files" : [],
            "step_info" : [
               "Loaded space type map from model",
               "Finished adding geometry",
               "Found mulitpliers for space {\"Core_mid\"=>10, \"DataCenter_mid_ZN_6\"=>10, \"MidFloor_Plenum\"=>10, \"Perimeter_mid_ZN_1\"=>10, \"Perimeter_mid_ZN_2\"=>10, \"Perimeter_mid_ZN_3\"=>10, \"Perimeter_mid_ZN_4\"=>10}",
               "Started adding weather file for climate zone: NECB HDD Method.",
               "Started applying space types (loads)",
               "Space Function - undefined - had no ventilation specification, one has been created.",
               "Space Function - undefined - had no infiltration objects, one has been created.",
               "Space Function - undefined - set infiltration to 0.0 per ft^2 exterior surface area.",
               "Space Function - undefined - set infiltration schedule to Always On.",
               "Space Function Electrical/Mechanical room-sch-A had no people, one has been created.",
               "Space Function Electrical/Mechanical room-sch-A set occupancy to 0.4646840148698885 people/1000 ft^2.",
               "Space Function Electrical/Mechanical room-sch-A had no lights, one has been created.",
               "Space Function Electrical/Mechanical room-sch-A set LPD to 0.4275092936802974 W/ft^2.",
               "Space Function Electrical/Mechanical room-sch-A had no electric equipment, one has been created.",
               "Space Function Electrical/Mechanical room-sch-A set electric EPD to 0.0929368029739777 W/ft^2.",
               "Space Function Electrical/Mechanical room-sch-A had no ventilation specification, one has been created.",
               "Space Function Electrical/Mechanical room-sch-A set ventilation per area to 0.06 cfm/ft^2.",
               "Space Function Electrical/Mechanical room-sch-A had no infiltration objects, one has been created.",
               "Space Function Electrical/Mechanical room-sch-A set infiltration to 0.0 per ft^2 exterior surface area.",
               "Space Function Electrical/Mechanical room-sch-A set occupancy schedule to NECB-A-Occupancy.",
               "Space Function Electrical/Mechanical room-sch-A set occupant activity schedule to NECB-Activity.",
               "Space Function Electrical/Mechanical room-sch-A set lighting schedule to NECB-A-Lighting.",
               "Space Function Electrical/Mechanical room-sch-A set electric equipment schedule to NECB-A-Electric-Equipment.",
               "Space Function Electrical/Mechanical room-sch-A set infiltration schedule to Always On.",
               "Space Function Electrical/Mechanical room-sch-A set heating setpoint schedule to NECB-A-Thermostat Setpoint-Heating.",
               "Space Function Electrical/Mechanical room-sch-A set cooling setpoint schedule to NECB-A-Thermostat Setpoint-Cooling.",
               "Space Function Office open plan had no people, one has been created.",
               "Space Function Office open plan set occupancy to 4.646840148698885 people/1000 ft^2.",
               "Space Function Office open plan had no lights, one has been created.",
               "Space Function Office open plan set LPD to 0.80825 W/ft^2.",
               "Space Function Office open plan had no electric equipment, one has been created.",
               "Space Function Office open plan set electric EPD to 0.6970260223048327 W/ft^2.",
               "Space Function Office open plan had no ventilation specification, one has been created.",
               "Space Function Office open plan set ventilation per area to 0.083 cfm/ft^2.",
               "Space Function Office open plan had no infiltration objects, one has been created.",
               "Space Function Office open plan set infiltration to 0.0 per ft^2 exterior surface area.",
               "Space Function Office open plan set occupancy schedule to NECB-A-Occupancy.",
               "Space Function Office open plan set occupant activity schedule to NECB-Activity.",
               "Space Function Office open plan set lighting schedule to OS:Schedule:Ruleset,\n  {8221bc42-a2b9-49f0-b8f3-763ab55c73f9}, !- Handle\n  NECB-A-Occupancy-NECB-A-Lighting-0.2-0.1-0.67-Light Ruleset, !- Name\n  {61251f27-864a-44d5-aa2b-e727b2effdec}, !- Schedule Type Limits Name\n  {362efa85-22d0-440e-a1b3-721b43baf411}; !- Default Day Schedule Name\n\n.",
               "Space Function Office open plan set electric equipment schedule to NECB-A-Electric-Equipment.",
               "Space Function Office open plan set infiltration schedule to Always On.",
               "Space Function Office open plan set heating setpoint schedule to NECB-A-Thermostat Setpoint-Heating.",
               "Space Function Office open plan set cooling setpoint schedule to NECB-A-Thermostat Setpoint-Cooling.",
               "Finished applying space types (loads)",
               "For NECB2017, no exterior wall area was found, no infiltration will be added.",
               "For NECB2017, no exterior wall area was found, no infiltration will be added.",
               "For NECB2017, no exterior wall area was found, no infiltration will be added.",
               "For NECB2017, no exterior wall area was found, no infiltration will be added.",
               "For NECB2017, no exterior wall area was found, no infiltration will be added.",
               "For NECB2017, no exterior wall area was found, no infiltration will be added.",
               "For NECB2017, no exterior wall area was found, no infiltration will be added.",
               "For NECB2017, no exterior wall area was found, no infiltration will be added.",
               "Started applying constructions",
               "Finished applying constructions",
               "Started creating thermal zones",
               "Finished creating thermal zones",
               "This building has no exposed ceilings adjacent to spaces that are not attics or plenums.  No skylights will be added.",
               "Running simulation /mnt/openstudio/analysis_68c8b576-a9a1-447a-a2db-fd41b0db3a06/data_point_0b724e85-8080-4ae0-8e4b-8ddd244bdc20/run/000_btap_create_necb_prototype_building/output/LargeOffice-NECB2017-CAN_BC_Vancouver.Intl.AP.718920_CWEC2016.epw/SR0.",
               "Finished run.",
               "Started Adding HVAC",
               "Finished adding HVAC",
               "Started Adding Service Water Heating",
               "Adding service water loop",
               "Adding water heater",
               "Finished adding Service Water Heating",
               "Set sizing factors to 1.3 for heating and 1.3 for cooling.",
               "Running simulation /mnt/openstudio/analysis_68c8b576-a9a1-447a-a2db-fd41b0db3a06/data_point_0b724e85-8080-4ae0-8e4b-8ddd244bdc20/run/000_btap_create_necb_prototype_building/output/LargeOffice-NECB2017-CAN_BC_Vancouver.Intl.AP.718920_CWEC2016.epw/SR1.",
               "Finished run.",
               "Started applying prototype HVAC assumptions.",
               "For Sys6 Return Fan: allowed_hp = 1.33HP; motor eff = 46.15%; total fan eff = 30% based on 4979 cfm.",
               "For Sys6 Return Fan 1: allowed_hp = 4.74HP; motor eff = 46.15%; total fan eff = 30% based on 17730 cfm.",
               "For Sys6 Return Fan 2: allowed_hp = 57.46HP; motor eff = 46.15%; total fan eff = 30% based on 215028 cfm.",
               "For Sys6 Return Fan 3: allowed_hp = 5.79HP; motor eff = 46.15%; total fan eff = 30% based on 21652 cfm.",
               "For Sys6 Supply Fan: allowed_hp = 5.32HP; motor eff = 84.61%; total fan eff = 55% based on 4979 cfm.",
               "For Sys6 Supply Fan 1: allowed_hp = 18.95HP; motor eff = 84.61%; total fan eff = 55% based on 17730 cfm.",
               "For Sys6 Supply Fan 2: allowed_hp = 229.85HP; motor eff = 84.61%; total fan eff = 55% based on 215028 cfm.",
               "For Sys6 Supply Fan 3: allowed_hp = 23.14HP; motor eff = 84.61%; total fan eff = 55% based on 21652 cfm.",
               "Sys_6_VAV with Reheat requires an economizer because the 'Design Supply Air Flow Rate' of 2349.9315062481724 L/s exceeds the minimum air flow rate of 1500 L/s.",
               "Sys_6_VAV with Reheat requires an economizer because the total cooling capacity of 161011 Btu/hr exceeds the minimum capacity of 68243 Btu/hr.",
               "Sys_6_VAV with Reheat 1 requires an economizer because the 'Design Supply Air Flow Rate' of 8367.730969162945 L/s exceeds the minimum air flow rate of 1500 L/s.",
               "Sys_6_VAV with Reheat 1 requires an economizer because the total cooling capacity of 532431 Btu/hr exceeds the minimum capacity of 68243 Btu/hr.",
               "Sys_6_VAV with Reheat 2 requires an economizer because the 'Design Supply Air Flow Rate' of 101482.01517001183 L/s exceeds the minimum air flow rate of 1500 L/s.",
               "Sys_6_VAV with Reheat 2 requires an economizer because the total cooling capacity of 6380011 Btu/hr exceeds the minimum capacity of 68243 Btu/hr.",
               "Sys_6_VAV with Reheat 3 requires an economizer because the 'Design Supply Air Flow Rate' of 10218.483521191636 L/s exceeds the minimum air flow rate of 1500 L/s.",
               "Sys_6_VAV with Reheat 3 requires an economizer because the total cooling capacity of 641342 Btu/hr exceeds the minimum capacity of 68243 Btu/hr.",
               "Finished applying prototype HVAC assumptions.",
               "Started applying HVAC efficiency standards.",
               "For Sys_6_VAV with Reheat: VAV damper action was set to Single Maximum control.",
               "For Sys6 Return Fan: Set fan curve coefficients to reflect control type of 'Multi Zone VAV with discharge dampers'.",
               "For Sys6 Supply Fan: Set fan curve coefficients to reflect control type of 'Multi Zone VAV with discharge dampers'.",
               "For NECB2017 NECB HDD Method:  Sys_6_VAV with Reheat: DCV is not required for any system.",
               "For Sys_6_VAV with Reheat: Annual occupied hours = 2860 hr/yr, assuming a 0.15 occupancy threshold.  This schedule will be used as the HVAC operation schedule.",
               "For Sys_6_VAV with Reheat: Because the system has an economizer, it requires a motorized OA damper.",
               "For Sys_6_VAV with Reheat: Setting motorized OA damper schedule to Sys_6_VAV with Reheat Occ Sch.",
               "For Sys_6_VAV with Reheat 1: VAV damper action was set to Single Maximum control.",
               "For Sys6 Return Fan 1: Set fan curve coefficients to reflect control type of 'Multi Zone VAV with discharge dampers'.",
               "For Sys6 Supply Fan 1: Set fan curve coefficients to reflect control type of 'Multi Zone VAV with discharge dampers'.",
               "For NECB2017 NECB HDD Method:  Sys_6_VAV with Reheat 1: DCV is not required for any system.",
               "For Sys_6_VAV with Reheat 1: Annual occupied hours = 2860 hr/yr, assuming a 0.15 occupancy threshold.  This schedule will be used as the HVAC operation schedule.",
               "For Sys_6_VAV with Reheat 1: Because the system has an economizer, it requires a motorized OA damper.",
               "For Sys_6_VAV with Reheat 1: Setting motorized OA damper schedule to Sys_6_VAV with Reheat 1 Occ Sch.",
               "For Sys_6_VAV with Reheat 2 ERV, ERV power is calculated to be 107843 W, based on a min OA flow of 318330 cfm.",
               "For Sys_6_VAV with Reheat 2: VAV damper action was set to Single Maximum control.",
               "For Sys6 Return Fan 2: Set fan curve coefficients to reflect control type of 'Multi Zone VAV with discharge dampers'.",
               "For Sys6 Supply Fan 2: Set fan curve coefficients to reflect control type of 'Multi Zone VAV with discharge dampers'.",
               "For NECB2017 NECB HDD Method:  Sys_6_VAV with Reheat 2: DCV is not required for any system.",
               "For Sys_6_VAV with Reheat 2: Annual occupied hours = 2860 hr/yr, assuming a 0.15 occupancy threshold.  This schedule will be used as the HVAC operation schedule.",
               "For Sys_6_VAV with Reheat 2: Because the system has an economizer, it requires a motorized OA damper.",
               "For Sys_6_VAV with Reheat 2: Setting motorized OA damper schedule to Sys_6_VAV with Reheat 2 Occ Sch.",
               "For Sys_6_VAV with Reheat 3: VAV damper action was set to Single Maximum control.",
               "For Sys6 Return Fan 3: Set fan curve coefficients to reflect control type of 'Multi Zone VAV with discharge dampers'.",
               "For Sys6 Supply Fan 3: Set fan curve coefficients to reflect control type of 'Multi Zone VAV with discharge dampers'.",
               "For NECB2017 NECB HDD Method:  Sys_6_VAV with Reheat 3: DCV is not required for any system.",
               "For Sys_6_VAV with Reheat 3: Annual occupied hours = 2860 hr/yr, assuming a 0.15 occupancy threshold.  This schedule will be used as the HVAC operation schedule.",
               "For Sys_6_VAV with Reheat 3: Because the system has an economizer, it requires a motorized OA damper.",
               "For Sys_6_VAV with Reheat 3: Setting motorized OA damper schedule to Sys_6_VAV with Reheat 3 Occ Sch.",
               "For Sys6 Return Fan: motor nameplate = 1.211554705221784HP, motor eff = 46.15%.",
               "For Sys6 Return Fan 1: motor nameplate = 4HP, motor eff = 46.15%.",
               "For Sys6 Return Fan 2: motor nameplate = 52HP, motor eff = 46.15%.",
               "For Sys6 Return Fan 3: motor nameplate = 5HP, motor eff = 46.15%.",
               "For Sys6 Supply Fan: motor nameplate = 5HP, motor eff = 84.61%.",
               "For Sys6 Supply Fan 1: motor nameplate = 17HP, motor eff = 84.61%.",
               "For Sys6 Supply Fan 2: motor nameplate = 209HP, motor eff = 84.61%.",
               "For Sys6 Supply Fan 3: motor nameplate = 21HP, motor eff = 84.61%.",
               "For Pump Constant Speed 1: brake hp = 27.68HP, motor nameplate = 30.0HP, motor eff = 93.6%.",
               "For Pump Constant Speed 2: brake hp = 65.71HP, motor nameplate = 75.0HP, motor eff = 95.4%.",
               "For Service Water Loop Pump: brake hp = 2.66HP, motor nameplate = 3.0HP, motor eff = 89.5%.",
               "For NECB2017: Primary Chiller WaterCooled Scroll 321tons 0.6kW/ton: WaterCooled  Scroll Capacity = 321tons; COP = 5.7 (0.6kW/ton)",
               "For NECB2017: Secondary Chiller WaterCooled Scroll 321tons 0.6kW/ton: WaterCooled  Scroll Capacity = 321tons; COP = 5.7 (0.6kW/ton)",
               "For NECB2017: 1089gal Electricity Water Heater - 735kBtu/hr 1.0 Therm Eff; thermal efficiency = 1.0, skin-loss UA = 17Btu/hr",
               "For Sys_6_VAV with Reheat 2 ERV: Set sensible and latent effectiveness to 50%.",
               "Finished applying HVAC efficiency standards.",
               "Started adding daylighting controls.",
               "For Basement, daylighting control not applicable because no exterior fenestration is present.",
               "For Core_bottom, daylighting control not applicable because no exterior fenestration is present.",
               "For Core_mid, daylighting control not applicable because no exterior fenestration is present.",
               "For Core_top, daylighting control not applicable because no exterior fenestration is present.",
               "For DataCenter_basement_ZN_6, daylighting control not applicable because no exterior fenestration is present.",
               "For DataCenter_bot_ZN_6, daylighting control not applicable because no exterior fenestration is present.",
               "For DataCenter_mid_ZN_6, daylighting control not applicable because no exterior fenestration is present.",
               "For DataCenter_top_ZN_6, daylighting control not applicable because no exterior fenestration is present.",
               "For GroundFloor_Plenum, daylighting control not applicable because no exterior fenestration is present.",
               "For MidFloor_Plenum, daylighting control not applicable because no exterior fenestration is present.",
               "For TopFloor_Plenum, daylighting control not applicable because no exterior fenestration is present.",
               "Finished adding daylighting controls.",
               "Running simulation /mnt/openstudio/analysis_68c8b576-a9a1-447a-a2db-fd41b0db3a06/data_point_0b724e85-8080-4ae0-8e4b-8ddd244bdc20/run/000_btap_create_necb_prototype_building/output/LargeOffice-NECB2017-CAN_BC_Vancouver.Intl.AP.718920_CWEC2016.epw/SR2.",
               "Finished run.",
               "Total Time = 123sec."
            ],
            "step_result" : "Success",
            "step_values" : [
               {
                  "name" : "building_type",
                  "value" : "LargeOffice"
               },
               {
                  "name" : "template",
                  "value" : "NECB2017"
               },
               {
                  "name" : "epw_file",
                  "value" : "CAN_BC_Vancouver.Intl.AP.718920_CWEC2016.epw"
               },
               {
                  "name" : "new_auto_zoner",
                  "value" : true
               }
            ],
            "step_warnings" : [
               "[openstudio.EpwFile] Successive data points (2011-Jan-31 to 2000-Feb-01, ending on line 753) are greater than 1 day apart in EPW file '/usr/local/lib/ruby/gems/2.2.0/bundler/gems/openstudio-standards-f0e9e7df79cf/data/weather/CAN_BC_Vancouver.Intl.AP.718920_CWEC2016.epw'. Data will be treated as typical (TMY)",
               "[openstudio.EpwFile] Successive data points (2011-Jan-31 to 2000-Feb-01, ending on line 753) are greater than 1 day apart in EPW file '/usr/local/lib/ruby/gems/2.2.0/bundler/gems/openstudio-standards-f0e9e7df79cf/data/weather/CAN_BC_Vancouver.Intl.AP.718920_CWEC2016.epw'. Data will be treated as typical (TMY)",
               "[openstudio.weather.Model] Could not find ground temperatures; will use generic temperatures, which will skew results.",
               "[openstudio.EpwFile] Successive data points (2011-Jan-31 to 2000-Feb-01, ending on line 753) are greater than 1 day apart in EPW file '/usr/local/lib/ruby/gems/2.2.0/bundler/gems/openstudio-standards-f0e9e7df79cf/data/weather/CAN_BC_Vancouver.Intl.AP.718920_CWEC2016.epw'. Data will be treated as typical (TMY)",
               "[openstudio.EpwFile] Successive data points (2011-Jan-31 to 2000-Feb-01, ending on line 753) are greater than 1 day apart in EPW file '/usr/local/lib/ruby/gems/2.2.0/bundler/gems/openstudio-standards-f0e9e7df79cf/data/weather/CAN_BC_Vancouver.Intl.AP.718920_CWEC2016.epw'. Data will be treated as typical (TMY)",
               "[openstudio.EpwFile] Successive data points (2011-Jan-31 to 2000-Feb-01, ending on line 753) are greater than 1 day apart in EPW file '/usr/local/lib/ruby/gems/2.2.0/bundler/gems/openstudio-standards-f0e9e7df79cf/data/weather/CAN_BC_Vancouver.Intl.AP.718920_CWEC2016.epw'. Data will be treated as typical (TMY)",
               "[openstudio.model.ChillerElectricEIR] Cannot set condenserType to 'WaterCooled', chiller 'Chiller Electric EIR 1' is not connected to a secondaryPlantLoop",
               "[openstudio.model.ChillerElectricEIR] Cannot set condenserType to 'WaterCooled', chiller 'Chiller Electric EIR 2' is not connected to a secondaryPlantLoop",
               "[openstudio.EpwFile] Successive data points (2011-Jan-31 to 2000-Feb-01, ending on line 753) are greater than 1 day apart in EPW file '/usr/local/lib/ruby/gems/2.2.0/bundler/gems/openstudio-standards-f0e9e7df79cf/data/weather/CAN_BC_Vancouver.Intl.AP.718920_CWEC2016.epw'. Data will be treated as typical (TMY)",
               "[openstudio.standards.Fan] For Sys6 Return Fan, there is no greater nominal HP.  Use the efficiency of the largest motor category.",
               "[openstudio.standards.Fan] For Sys6 Return Fan 1, there is no greater nominal HP.  Use the efficiency of the largest motor category.",
               "[openstudio.standards.Fan] For Sys6 Return Fan 2, there is no greater nominal HP.  Use the efficiency of the largest motor category.",
               "[openstudio.standards.Fan] For Sys6 Return Fan 3, there is no greater nominal HP.  Use the efficiency of the largest motor category.",
               "[openstudio.standards.Fan] For Sys6 Supply Fan, there is no greater nominal HP.  Use the efficiency of the largest motor category.",
               "[openstudio.standards.Fan] For Sys6 Supply Fan 1, there is no greater nominal HP.  Use the efficiency of the largest motor category.",
               "[openstudio.standards.Fan] For Sys6 Supply Fan 2, there is no greater nominal HP.  Use the efficiency of the largest motor category.",
               "[openstudio.standards.Fan] For Sys6 Supply Fan 3, there is no greater nominal HP.  Use the efficiency of the largest motor category.",
               "[openstudio.EpwFile] Successive data points (2011-Jan-31 to 2000-Feb-01, ending on line 753) are greater than 1 day apart in EPW file '/usr/local/lib/ruby/gems/2.2.0/bundler/gems/openstudio-standards-f0e9e7df79cf/data/weather/CAN_BC_Vancouver.Intl.AP.718920_CWEC2016.epw'. Data will be treated as typical (TMY)",
               "[openstudio.EpwFile] Successive data points (2011-Jan-31 to 2000-Feb-01, ending on line 753) are greater than 1 day apart in EPW file '/usr/local/lib/ruby/gems/2.2.0/bundler/gems/openstudio-standards-f0e9e7df79cf/data/weather/CAN_BC_Vancouver.Intl.AP.718920_CWEC2016.epw'. Data will be treated as typical (TMY)",
               "[openstudio.EpwFile] Successive data points (2011-Jan-31 to 2000-Feb-01, ending on line 753) are greater than 1 day apart in EPW file '/usr/local/lib/ruby/gems/2.2.0/bundler/gems/openstudio-standards-f0e9e7df79cf/data/weather/CAN_BC_Vancouver.Intl.AP.718920_CWEC2016.epw'. Data will be treated as typical (TMY)",
               "[openstudio.EpwFile] Successive data points (2011-Jan-31 to 2000-Feb-01, ending on line 753) are greater than 1 day apart in EPW file '/usr/local/lib/ruby/gems/2.2.0/bundler/gems/openstudio-standards-f0e9e7df79cf/data/weather/CAN_BC_Vancouver.Intl.AP.718920_CWEC2016.epw'. Data will be treated as typical (TMY)",
               "[openstudio.standards.Fan] For Sys6 Return Fan, there is no greater nominal HP.  Use the efficiency of the largest motor category.",
               "[openstudio.standards.Fan] For Sys6 Return Fan 1, there is no greater nominal HP.  Use the efficiency of the largest motor category.",
               "[openstudio.standards.Fan] For Sys6 Return Fan 2, there is no greater nominal HP.  Use the efficiency of the largest motor category.",
               "[openstudio.standards.Fan] For Sys6 Return Fan 3, there is no greater nominal HP.  Use the efficiency of the largest motor category.",
               "[openstudio.standards.Fan] For Sys6 Supply Fan, there is no greater nominal HP.  Use the efficiency of the largest motor category.",
               "[openstudio.standards.Fan] For Sys6 Supply Fan 1, there is no greater nominal HP.  Use the efficiency of the largest motor category.",
               "[openstudio.standards.Fan] For Sys6 Supply Fan 2, there is no greater nominal HP.  Use the efficiency of the largest motor category.",
               "[openstudio.standards.Fan] For Sys6 Supply Fan 3, there is no greater nominal HP.  Use the efficiency of the largest motor category.",
               "[openstudio.standards.CoolingTower] For Cooling Tower Single Speed 1, cannot find heat rejection properties, cannot apply standard efficiencies or curves."
            ]
         }
      },
      {
         "arguments" : {
            "clg_cop" : 0,
            "heat_pump_type" : "CCASHP",
            "htg_cop" : 0,
            "zone_clg_eqpt" : "Keep Existing",
            "zone_htg_eqpt" : "Electric Baseboard",
            "zone_term_reheat_eqpt" : "Electric"
         },
         "description" : "Scan all air systems amd delete existing heating and cooling coils. Then add DX heating and cooling coils and supplemental heating electric coils for an air-source heat pump. The zonal heating units can either be deleted, left as is, or replaced with electric baseboards. Zonal cooling units can either be deleted or left as is in the model.",
         "measure_dir_name" : "BTAPHeatPumpAirSystem",
         "name" : "set_heat_pump_air_system",
         "result" : {
            "completed_at" : "20190517T152408Z",
            "measure_class_name" : "SetHeatPumpAirSystem",
            "measure_display_name" : "SetHeatPumpAirSystem",
            "measure_name" : "set_heat_pump_air_system",
            "measure_taxonomy" : "HVAC.Heating",
            "measure_type" : "ModelMeasure",
            "measure_uid" : "95d36ab6-98d7-4fcb-b265-c71e7cf2e28e",
            "measure_version_id" : "05e4ea59-ded6-4b3c-8ddd-f70e82d7aa91",
            "measure_version_modified" : "20190517T150558Z",
            "measure_xml_checksum" : "470FC630",
            "started_at" : "20190517T152348Z",
            "stderr" : "",
            "stdout" : "[utilities.idf.WorkspaceObject] <0> Object of type 'Schedule:Constant' and named 'Always On Continuous', points to an object named Fractional 1 from field 1, but that object cannot be located.\n",
            "step_errors" : [],
            "step_files" : [],
            "step_info" : [],
            "step_result" : "Success",
            "step_values" : [
               {
                  "name" : "heat_pump_type",
                  "value" : "CCASHP"
               },
               {
                  "name" : "zone_htg_eqpt",
                  "value" : "Electric Baseboard"
               },
               {
                  "name" : "zone_clg_eqpt",
                  "value" : "Keep Existing"
               },
               {
                  "name" : "zone_term_reheat_eqpt",
                  "value" : "Electric"
               },
               {
                  "name" : "htg_cop",
                  "value" : 0
               },
               {
                  "name" : "clg_cop",
                  "value" : 0
               }
            ],
            "step_warnings" : []
         }
      },
      {
         "arguments" : {},
         "description" : "BTAPUtilityTariffs",
         "measure_dir_name" : "btap_utility_tariffs",
         "name" : "btap_utility_tariffs_model_setup",
         "result" : {
            "completed_at" : "20190517T152411Z",
            "measure_class_name" : "BTAPUtilityTariffsModelSetup",
            "measure_display_name" : "BTAPUtilityTariffsModelSetup",
            "measure_name" : "btap_utility_tariffs_model_setup",
            "measure_taxonomy" : "Economics.Life Cycle Cost Analysis",
            "measure_type" : "EnergyPlusMeasure",
[...]
"=>389.7, \"cost\"=>2112.25, \"cost_per_ft2\"=>5.42020432822442, \"note\"=>\"\"}, {\"space\"=>\"DataCenter_mid_ZN_6\", \"zone\"=>\"Sp-DataCenter_mid_ZN_6 Sys-6 Flr-3 Sch-A HPlcmt-core ZN\", \"building_type\"=>\"Space Function\", \"space_type\"=>\"Office open plan\", \"zone_multiplier\"=>10, \"fixture_type\"=>\"7\", \"fixture_desciption\"=>\"High Bay (10 ft above work plane) Fluorescent Lighting 1.5 W/ft2 (16 W/m2), 103FC, 7 Fixtures per 1000 ft2\", \"height_avg_ft\"=>9.0, \"floor_area_ft2\"=>3897.0, \"cost\"=>21122.54, \"cost_per_ft2\"=>5.4202043282244174, \"note\"=>\"\"}, {\"space\"=>\"DataCenter_top_ZN_6\", \"zone\"=>\"Sp-DataCenter_top_ZN_6 Sys-6 Flr-4 Sch-A HPlcmt-core ZN\", \"building_type\"=>\"Space Function\", \"space_type\"=>\"Office open plan\", \"zone_multiplier\"=>1, \"fixture_type\"=>\"7\", \"fixture_desciption\"=>\"High Bay (10 ft above work plane) Fluorescent Lighting 1.5 W/ft2 (16 W/m2), 103FC, 7 Fixtures per 1000 ft2\", \"height_avg_ft\"=>9.0, \"floor_area_ft2\"=>389.7, \"cost\"=>2112.25, \"cost_per_ft2\"=>5.4202043282244174, \"note\"=>\"\"}, {\"space\"=>\"GroundFloor_Plenum\", \"zone\"=>\"Sp-GroundFloor_Plenum Sys-0 Flr-2 Sch-- undefined - HPlcmt-north ZN\", \"building_type\"=>\"Space Function\", \"space_type\"=>\"- undefined -\", \"zone_multiplier\"=>1, \"fixture_type\"=>\"Nil\", \"fixture_desciption\"=>\"\", \"height_avg_ft\"=>4.0, \"floor_area_ft2\"=>38353.0, \"cost\"=>0.0, \"cost_per_ft2\"=>0.0, \"note\"=>\"\"}, {\"space\"=>\"MidFloor_Plenum\", \"zone\"=>\"Sp-MidFloor_Plenum Sys-0 Flr-3 Sch-- undefined - HPlcmt-north ZN\", \"building_type\"=>\"Space Function\", \"space_type\"=>\"- undefined -\", \"zone_multiplier\"=>10, \"fixture_type\"=>\"Nil\", \"fixture_desciption\"=>\"\", \"height_avg_ft\"=>4.0, \"floor_area_ft2\"=>383530.0, \"cost\"=>0.0, \"cost_per_ft2\"=>0.0, \"note\"=>\"\"}, {\"space\"=>\"Perimeter_bot_ZN_1\", \"zone\"=>\"Sp-Perimeter_bot_ZN_1 Sys-6 Flr-2 Sch-A HPlcmt-south ZN\", \"building_type\"=>\"Space Function\", \"space_type\"=>\"Office open plan\", \"zone_multiplier\"=>1, \"fixture_type\"=>\"7\", \"fixture_desciption\"=>\"High Bay (10 ft above work plane) Fluorescent Lighting 1.5 W/ft2 (16 W/m2), 103FC, 7 Fixtures per 1000 ft2\", \"height_avg_ft\"=>9.0, \"floor_area_ft2\"=>3373.6, \"cost\"=>18286.51, \"cost_per_ft2\"=>5.420474269145211, \"note\"=>\"\"}, {\"space\"=>\"Perimeter_bot_ZN_2\", \"zone\"=>\"Sp-Perimeter_bot_ZN_2 Sys-6 Flr-2 Sch-A HPlcmt-east ZN\", \"building_type\"=>\"Space Function\", \"space_type\"=>\"Office open plan\", \"zone_multiplier\"=>1, \"fixture_type\"=>\"7\", \"fixture_desciption\"=>\"High Bay (10 ft above work plane) Fluorescent Lighting 1.5 W/ft2 (16 W/m2), 103FC, 7 Fixtures per 1000 ft2\", \"height_avg_ft\"=>9.0, \"floor_area_ft2\"=>2174.0, \"cost\"=>11784.27, \"cost_per_ft2\"=>5.420545550679462, \"note\"=>\"\"}, {\"space\"=>\"Perimeter_bot_ZN_3\", \"zone\"=>\"Sp-Perimeter_bot_ZN_3 Sys-6 Flr-2 Sch-A HPlcmt-north ZN\", \"building_type\"=>\"Space Function\", \"space_type\"=>\"Office open plan\", \"zone_multiplier\"=>1, \"fixture_type\"=>\"7\", \"fixture_desciption\"=>\"High Bay (10 ft above work plane) Fluorescent Lighting 1.5 W/ft2 (16 W/m2), 103FC, 7 Fixtures per 1000 ft2\", \"height_avg_ft\"=>9.0, \"floor_area_ft2\"=>3373.5, \"cost\"=>18286.11, \"cost_per_ft2\"=>5.420516416743776, \"note\"=>\"\"}, {\"space\"=>\"Perimeter_bot_ZN_4\", \"zone\"=>\"Sp-Perimeter_bot_ZN_4 Sys-6 Flr-2 Sch-A HPlcmt-west ZN\", \"building_type\"=>\"Space Function\", \"space_type\"=>\"Office open plan\", \"zone_multiplier\"=>1, \"fixture_type\"=>\"7\", \"fixture_desciption\"=>\"High Bay (10 ft above work plane) Fluorescent Lighting 1.5 W/ft2 (16 W/m2), 103FC, 7 Fixtures per 1000 ft2\", \"height_avg_ft\"=>9.0, \"floor_area_ft2\"=>2174.0, \"cost\"=>11784.27, \"cost_per_ft2\"=>5.420545550679462, \"note\"=>\"\"}, {\"space\"=>\"Perimeter_mid_ZN_1\", \"zone\"=>\"Sp-Perimeter_mid_ZN_1 Sys-6 Flr-3 Sch-A HPlcmt-south ZN\", \"building_type\"=>\"Space Function\", \"space_type\"=>\"Office open plan\", \"zone_multiplier\"=>10, \"fixture_type\"=>\"7\", \"fixture_desciption\"=>\"High Bay (10 ft above work plane) Fluorescent Lighting 1.5 W/ft2 (16 W/m2), 103FC, 7 Fixtures per 1000 ft2\", \"height_avg_ft\"=>9.0, \"floor_area_ft2\"=>33736.0, \"cost\"=>182865.12, \"cost_per_ft2\"=>5.42047426914521, \"note\"=>\"\"}, {\"space\"=>\"Perimeter_mid_ZN_2\", \"zone\"=>\"Sp-Perimeter_mid_ZN_2 Sys-6 Flr-3 Sch-A HPlcmt-east ZN\", \"building_type\"=>\"Space Function\", \"space_type\"=>\"Office open plan\", \"zone_multiplier\"=>10, \"fixture_type\"=>\"7\", \"fixture_desciption\"=>\"High Bay (10 ft above work plane) Fluorescent Lighting 1.5 W/ft2 (16 W/m2), 103FC, 7 Fixtures per 1000 ft2\", \"height_avg_ft\"=>9.0, \"floor_area_ft2\"=>21740.0, \"cost\"=>117842.66, \"cost_per_ft2\"=>5.420545550679461, \"note\"=>\"\"}, {\"space\"=>\"Perimeter_mid_ZN_3\", \"zone\"=>\"Sp-Perimeter_mid_ZN_3 Sys-6 Flr-3 Sch-A HPlcmt-north ZN\", \"building_type\"=>\"Space Function\", \"space_type\"=>\"Office open plan\", \"zone_multiplier\"=>10, \"fixture_type\"=>\"7\", \"fixture_desciption\"=>\"High Bay (10 ft above work plane) Fluorescent Lighting 1.5 W/ft2 (16 W/m2), 103FC, 7 Fixtures per 1000 ft2\", \"height_avg_ft\"=>9.0, \"floor_area_ft2\"=>33735.0, \"cost\"=>182861.12, \"cost_per_ft2\"=>5.420516416743775, \"note\"=>\"\"}, {\"space\"=>\"Perimeter_mid_ZN_4\", \"zone\"=>\"Sp-Perimeter_mid_ZN_4 Sys-6 Flr-3 Sch-A HPlcmt-west ZN\", \"building_type\"=>\"Space Function\", \"space_type\"=>\"Office open plan\", \"zone_multiplier\"=>10, \"fixture_type\"=>\"7\", \"fixture_desciption\"=>\"High Bay (10 ft above work plane) Fluorescent Lighting 1.5 W/ft2 (16 W/m2), 103FC, 7 Fixtures per 1000 ft2\", \"height_avg_ft\"=>9.0, \"floor_area_ft2\"=>21740.0, \"cost\"=>117842.66, \"cost_per_ft2\"=>5.420545550679461, \"note\"=>\"\"}, {\"space\"=>\"Perimeter_top_ZN_1\", \"zone\"=>\"Sp-Perimeter_top_ZN_1 Sys-6 Flr-4 Sch-A HPlcmt-south ZN\", \"building_type\"=>\"Space Function\", \"space_type\"=>\"Office open plan\", \"zone_multiplier\"=>1, \"fixture_type\"=>\"7\", \"fixture_desciption\"=>\"High Bay (10 ft above work plane) Fluorescent Lighting 1.5 W/ft2 (16 W/m2), 103FC, 7 Fixtures per 1000 ft2\", \"height_avg_ft\"=>9.0, \"floor_area_ft2\"=>3373.6, \"cost\"=>18286.51, \"cost_per_ft2\"=>5.420474269145211, \"note\"=>\"\"}, {\"space\"=>\"Perimeter_top_ZN_2\", \"zone\"=>\"Sp-Perimeter_top_ZN_2 Sys-6 Flr-4 Sch-A HPlcmt-east ZN\", \"building_type\"=>\"Space Function\", \"space_type\"=>\"Office open plan\", \"zone_multiplier\"=>1, \"fixture_type\"=>\"7\", \"fixture_desciption\"=>\"High Bay (10 ft above work plane) Fluorescent Lighting 1.5 W/ft2 (16 W/m2), 103FC, 7 Fixtures per 1000 ft2\", \"height_avg_ft\"=>9.0, \"floor_area_ft2\"=>2174.0, \"cost\"=>11784.27, \"cost_per_ft2\"=>5.420545550679462, \"note\"=>\"\"}, {\"space\"=>\"Perimeter_top_ZN_3\", \"zone\"=>\"Sp-Perimeter_top_ZN_3 Sys-6 Flr-4 Sch-A HPlcmt-north ZN\", \"building_type\"=>\"Space Function\", \"space_type\"=>\"Office open plan\", \"zone_multiplier\"=>1, \"fixture_type\"=>\"7\", \"fixture_desciption\"=>\"High Bay (10 ft above work plane) Fluorescent Lighting 1.5 W/ft2 (16 W/m2), 103FC, 7 Fixtures per 1000 ft2\", \"height_avg_ft\"=>9.0, \"floor_area_ft2\"=>3373.5, \"cost\"=>18286.11, \"cost_per_ft2\"=>5.420516416743776, \"note\"=>\"\"}, {\"space\"=>\"Perimeter_top_ZN_4\", \"zone\"=>\"Sp-Perimeter_top_ZN_4 Sys-6 Flr-4 Sch-A HPlcmt-west ZN\", \"building_type\"=>\"Space Function\", \"space_type\"=>\"Office open plan\", \"zone_multiplier\"=>1, \"fixture_type\"=>\"7\", \"fixture_desciption\"=>\"High Bay (10 ft above work plane) Fluorescent Lighting 1.5 W/ft2 (16 W/m2), 103FC, 7 Fixtures per 1000 ft2\", \"height_avg_ft\"=>9.0, \"floor_area_ft2\"=>2174.0, \"cost\"=>11784.27, \"cost_per_ft2\"=>5.420545550679462, \"note\"=>\"\"}, {\"space\"=>\"TopFloor_Plenum\", \"zone\"=>\"Sp-TopFloor_Plenum Sys-0 Flr-4 Sch-- undefined - HPlcmt-north ZN\", \"building_type\"=>\"Space Function\", \"space_type\"=>\"- undefined -\", \"zone_multiplier\"=>1, \"fixture_type\"=>\"Nil\", \"fixture_desciption\"=>\"\", \"height_avg_ft\"=>4.0, \"floor_area_ft2\"=>38353.0, \"cost\"=>0.0, \"cost_per_ft2\"=>0.0, \"note\"=>\"\"}], \"total_lighting_cost\"=>2702568.42}, \"heating_and_cooling\"=>{\"plant_equipment\"=>[{\"type\"=>\"boilers\", \"nom_flr2flr_hght_ft\"=>12.6, \"ht_roof_ft\"=>164.0, \"longest_distance_to_ext_ft\"=>156.6, \"wiring_and_gas_connections_distance_ft\"=>169.2, \"equipment_cost\"=>0.0, \"flue_cost\"=>0.0, \"wiring_and_gas_connections_cost\"=>0.0, \"pump_cost\"=>0.0, \"piping_cost\"=>0.0, \"total_cost\"=>0.0}, {\"type\"=>\"chillers\", \"nom_flr2flr_hght_ft\"=>12.6, \"ht_roof_ft\"=>164.0, \"longest_distance_to_ext_ft\"=>156.6, \"wiring_and_gas_connections_distance_ft\"=>169.2, \"equipment_cost\"=>0.0, \"flue_cost\"=>0.0, \"wiring_and_gas_connections_cost\"=>0.0, \"pump_cost\"=>0.0, \"piping_cost\"=>0.0, \"total_cost\"=>0.0}, {\"type\"=>\"cooling_towers\", \"nom_flr2flr_hght_ft\"=>12.6, \"ht_roof_ft\"=>164.0, \"longest_distance_to_ext_ft\"=>156.6, \"wiring_and_gas_connections_distance_ft\"=>169.2, \"equipment_cost\"=>0.0, \"wiring_and_gas_connections_cost\"=>0.0, \"pump_cost\"=>0.0, \"piping_cost\"=>0.0, \"total_cost\"=>0.0}], \"zonal_systems\"=>[{\"systype\"=>nil, \"zone_number\"=>1, \"zone_name\"=>\"Sp-Basement Sys-6 Flr-1 Sch-A HPlcmt-north ZN\", \"zone_multiple\"=>1, \"heat_capacity(kW)\"=>0.0, \"cool_capacity(kW)\"=>0.0, \"heat_cost\"=>0.0, \"cool_cost\"=>0.0, \"heatcool_cost\"=>0.0, \"num_units\"=>nil, \"cummultive_cost\"=>0.0}, {\"systype\"=>nil, \"zone_number\"=>2, \"zone_name\"=>\"Sp-Core_bottom Sys-6 Flr-2 Sch-A HPlcmt-core ZN\", \"zone_multiple\"=>1, \"heat_capacity(kW)\"=>0.0, \"cool_capacity(kW)\"=>0.0, \"heat_cost\"=>0.0, \"cool_cost\"=>0.0, \"heatcool_cost\"=>0.0, \"num_units\"=>nil, \"cummultive_cost\"=>0.0}, {\"systype\"=>nil, \"zone_number\"=>3, \"zone_name\"=>\"Sp-Core_mid Sys-6 Flr-3 Sch-A HPlcmt-core ZN\", \"zone_multiple\"=>10, \"heat_capacity(kW)\"=>0.0, \"cool_capacity(kW)\"=>0.0, \"heat_cost\"=>0.0, \"cool_cost\"=>0.0, \"heatcool_cost\"=>0.0, \"num_units\"=>nil, \"cummultive_cost\"=>0.0}, {\"systype\"=>nil, \"zone_number\"=>4, \"zone_name\"=>\"Sp-Core_top Sys-6 Flr-4 Sch-A HPlcmt-core ZN\", \"zone_multiple\"=>1, \"heat_capacity(kW)\"=>47.8, \"cool_capacity(kW)\"=>0.0, \"heat_cost\"=>0.0, \"cool_cost\"=>0.0, \"heatcool_cost\"=>0.0, \"num_units\"=>nil, \"cummultive_cost\"=>0.0}, {\"systype\"=>nil, \"zone_number\"=>5, \"zone_name\"=>\"Sp-DataCenter_basement_ZN_6 Sys-6 Flr-1 Sch-A HPlcmt-west ZN\", \"zone_multiple\"=>1, \"heat_capacity(kW)\"=>0.0, \"cool_capacity(kW)\"=>0.0, \"heat_cost\"=>0.0, \"cool_cost\"=>0.0, \"heatcool_cost\"=>0.0, \"num_units\"=>nil, \"cummultive_cost\"=>0.0}, {\"systype\"=>nil, \"zone_number\"=>6, \"zone_name\"=>\"Sp-DataCenter_bot_ZN_6 Sys-6 Flr-2 Sch-A HPlcmt-core ZN\", \"zone_multiple\"=>1, \"heat_capacity(kW)\"=>0.0, \"cool_capacity(kW)\"=>0.0, \"heat_cost\"=>0.0, \"cool_cost\"=>0.0, \"heatcool_cost\"=>0.0, \"num_units\"=>nil, \"cummultive_cost\"=>0.0}, {\"systype\"=>nil, \"zone_number\"=>7, \"zone_name\"=>\"Sp-DataCenter_mid_ZN_6 Sys-6 Flr-3 Sch-A HPlcmt-core ZN\", \"zone_multiple\"=>10, \"heat_capacity(kW)\"=>1.8, \"cool_capacity(kW)\"=>0.0, \"heat_cost\"=>0.0, \"cool_cost\"=>0.0, \"heatcool_cost\"=>0.0, \"num_units\"=>nil, \"cummultive_cost\"=>0.0}, {\"systype\"=>nil, \"zone_number\"=>8, \"zone_name\"=>\"Sp-DataCenter_top_ZN_6 Sys-6 Flr-4 Sch-A HPlcmt-core ZN\", \"zone_multiple\"=>1, \"heat_capacity(kW)\"=>2.5, \"cool_capacity(kW)\"=>0.0, \"heat_cost\"=>0.0, \"cool_cost\"=>0.0, \"heatcool_cost\"=>0.0, \"num_units\"=>nil, \"cummultive_cost\"=>0.0}, {\"systype\"=>nil, \"zone_number\"=>11, \"zone_name\"=>\"Sp-Perimeter_bot_ZN_1 Sys-6 Flr-2 Sch-A HPlcmt-south ZN\", \"zone_multiple\"=>1, \"heat_capacity(kW)\"=>4.9, \"cool_capacity(kW)\"=>0.0, \"heat_cost\"=>0.0, \"cool_cost\"=>0.0, \"heatcool_cost\"=>0.0, \"num_units\"=>nil, \"cummultive_cost\"=>0.0}, {\"systype\"=>nil, \"zone_number\"=>12, \"zone_name\"=>\"Sp-Perimeter_bot_ZN_2 Sys-6 Flr-2 Sch-A HPlcmt-east ZN\", \"zone_multiple\"=>1, \"heat_capacity(kW)\"=>3.4, \"cool_capacity(kW)\"=>0.0, \"heat_cost\"=>0.0, \"cool_cost\"=>0.0, \"heatcool_cost\"=>0.0, \"num_units\"=>nil, \"cummultive_cost\"=>0.0}, {\"systype\"=>nil, \"zone_number\"=>13, \"zone_name\"=>\"Sp-Perimeter_bot_ZN_3 Sys-6 Flr-2 Sch-A HPlcmt-north ZN\", \"zone_multiple\"=>1, \"heat_capacity(kW)\"=>4.9, \"cool_capacity(kW)\"=>0.0, \"heat_cost\"=>0.0, \"cool_cost\"=>0.0, \"heatcool_cost\"=>0.0, \"num_units\"=>nil, \"cummultive_cost\"=>0.0}, {\"systype\"=>nil, \"zone_number\"=>14, \"zone_name\"=>\"Sp-Perimeter_bot_ZN_4 Sys-6 Flr-2 Sch-A HPlcmt-west ZN\", \"zone_multiple\"=>1, \"heat_capacity(kW)\"=>3.4, \"cool_capacity(kW)\"=>0.0, \"heat_cost\"=>0.0, \"cool_cost\"=>0.0, \"heatcool_cost\"=>0.0, \"num_units\"=>nil, \"cummultive_cost\"=>0.0}, {\"systype\"=>nil, \"zone_number\"=>15, \"zone_name\"=>\"Sp-Perimeter_mid_ZN_1 Sys-6 Flr-3 Sch-A HPlcmt-south ZN\", \"zone_multiple\"=>10, \"heat_capacity(kW)\"=>78.9, \"cool_capacity(kW)\"=>0.0, \"heat_cost\"=>0.0, \"cool_cost\"=>0.0, \"heatcool_cost\"=>0.0, \"num_units\"=>nil, \"cummultive_cost\"=>0.0}, {\"systype\"=>nil, \"zone_number\"=>16, \"zone_name\"=>\"Sp-Perimeter_mid_ZN_2 Sys-6 Flr-3 Sch-A HPlcmt-east ZN\", \"zone_multiple\"=>10, \"heat_capacity(kW)\"=>53.8, \"cool_capacity(kW)\"=>0.0, \"heat_cost\"=>0.0, \"cool_cost\"=>0.0, \"heatcool_cost\"=>0.0, \"num_units\"=>nil, \"cummultive_cost\"=>0.0}, {\"systype\"=>nil, \"zone_number\"=>17, \"zone_name\"=>\"Sp-Perimeter_mid_ZN_3 Sys-6 Flr-3 Sch-A HPlcmt-north ZN\", \"zone_multiple\"=>10, \"heat_capacity(kW)\"=>78.9, \"cool_capacity(kW)\"=>0.0, \"heat_cost\"=>0.0, \"cool_cost\"=>0.0, \"heatcool_cost\"=>0.0, \"num_units\"=>nil, \"cummultive_cost\"=>0.0}, {\"systype\"=>nil, \"zone_number\"=>18, \"zone_name\"=>\"Sp-Perimeter_mid_ZN_4 Sys-6 Flr-3 Sch-A HPlcmt-west ZN\", \"zone_multiple\"=>10, \"heat_capacity(kW)\"=>57.5, \"cool_capacity(kW)\"=>0.0, \"heat_cost\"=>0.0, \"cool_cost\"=>0.0, \"heatcool_cost\"=>0.0, \"num_units\"=>nil, \"cummultive_cost\"=>0.0}, {\"systype\"=>nil, \"zone_number\"=>19, \"zone_name\"=>\"Sp-Perimeter_top_ZN_1 Sys-6 Flr-4 Sch-A HPlcmt-south ZN\", \"zone_multiple\"=>1, \"heat_capacity(kW)\"=>17.2, \"cool_capacity(kW)\"=>0.0, \"heat_cost\"=>0.0, \"cool_cost\"=>0.0, \"heatcool_cost\"=>0.0, \"num_units\"=>nil, \"cummultive_cost\"=>0.0}, {\"systype\"=>nil, \"zone_number\"=>20, \"zone_name\"=>\"Sp-Perimeter_top_ZN_2 Sys-6 Flr-4 Sch-A HPlcmt-east ZN\", \"zone_multiple\"=>1, \"heat_capacity(kW)\"=>11.4, \"cool_capacity(kW)\"=>0.0, \"heat_cost\"=>0.0, \"cool_cost\"=>0.0, \"heatcool_cost\"=>0.0, \"num_units\"=>nil, \"cummultive_cost\"=>0.0}, {\"systype\"=>nil, \"zone_number\"=>21, \"zone_name\"=>\"Sp-Perimeter_top_ZN_3 Sys-6 Flr-4 Sch-A HPlcmt-north ZN\", \"zone_multiple\"=>1, \"heat_capacity(kW)\"=>17.2, \"cool_capacity(kW)\"=>0.0, \"heat_cost\"=>0.0, \"cool_cost\"=>0.0, \"heatcool_cost\"=>0.0, \"num_units\"=>nil, \"cummultive_cost\"=>0.0}, {\"systype\"=>nil, \"zone_number\"=>22, \"zone_name\"=>\"Sp-Perimeter_top_ZN_4 Sys-6 Flr-4 Sch-A HPlcmt-west ZN\", \"zone_multiple\"=>1, \"heat_capacity(kW)\"=>11.3, \"cool_capacity(kW)\"=>0.0, \"heat_cost\"=>0.0, \"cool_cost\"=>0.0, \"heatcool_cost\"=>0.0, \"num_units\"=>nil, \"cummultive_cost\"=>0.0}]}, \"shw\"=>{}, \"ventilation\"=>{}, \"totals\"=>{\"envelope\"=>1219799.09, \"lighting\"=>2702568.42, \"heating_and_cooling\"=>0.0, \"shw\"=>0.0, \"ventilation\"=>4679960.25, \"grand_total\"=>8602327.75}, \"zonal systems\"=>{}}"
               },
               {
                  "name" : "total_envelope_cost",
                  "value" : 1219799.0900000001
               },
               {
                  "name" : "total_lighting_cost",
                  "value" : 2702568.4199999999
               },
               {
                  "name" : "total_heating_cooling_cost",
                  "value" : 0
               },
               {
                  "name" : "total_shw_cost",
                  "value" : 0
               },
               {
                  "name" : "total_ventilation_cost",
                  "value" : 4679960.25
               },
               {
                  "name" : "total_capital_cost",
                  "value" : 0
               },
               {
                  "name" : "total_neb_utility_costs",
                  "value" : 355874.02799999999
               },
               {
                  "name" : "total_capital_and_energy_costs",
                  "value" : 355874.02799999999
               },
               {
                  "name" : "total_envelope_and_energy_costs",
                  "value" : 1575673.118
               }
            ],
            "step_warnings" : []
         }
      },
      {
         "arguments" : {},
         "description" : "Removes a significant portion of the saved results from each run, helping to alleviate memory problems.",
         "measure_dir_name" : "ServerDirectoryCleanup",
         "name" : "server_directory_cleanup",
         "result" : {
            "completed_at" : "20190517T152552Z",
            "measure_class_name" : "ServerDirectoryCleanup",
            "measure_display_name" : "Server Directory Cleanup",
            "measure_name" : "server_directory_cleanup",
            "measure_taxonomy" : "Calibration",
            "measure_type" : "ReportingMeasure",
            "measure_uid" : "ec7d04ad-0b7b-495b-825a-e1b6d28d1d3f",
            "measure_version_id" : "2e0a3f67-3aa6-42cc-b9ff-8aa66615c0a1",
            "measure_version_modified" : "20190226T195336Z",
            "measure_xml_checksum" : "5F1EDF75",
            "started_at" : "20190517T152552Z",
            "stderr" : "",
            "stdout" : "[OpenStudio.Measure] <0> OSArgumentVector is deprecated, use OpenStudio::Measure::OSArgumentVector instead.\n",
            "step_errors" : [],
            "step_files" : [],
            "step_final_condition" : "The following files were in the local run directory following to the execution of this measure: eplusout.mtr, 000_btap_create_necb_prototype_building, sqlite.err, run.log, in.epw, pre-preprocess.idf, measure_attributes.json, eplusout.rdd, 002_btap_utility_tariffs, 001_BTAPHeatPumpAirSystem, 003_ServerDirectoryCleanup, eplusout.mtd, stdout-expandobject, 004_ServerDirectoryCleanup, in.idf, ., eplusout.end, eplustbl.htm, stdout-energyplus, eplusout.err, 003_btap_results, started.job, ...",
            "step_info" : [
               "Deleted ./../eplusout.sql from the run directory.",
               "Deleted ./../eplusout.audit from the run directory.",
               "Deleted ./../in.osm from the run directory.",
               "Deleted ./../eplusout.bnd from the run directory.",
               "Deleted ./../eplusout.eio from the run directory.",
               "Deleted ./../eplusout.shd from the run directory.",
               "Deleted ./../eplusout.mdd from the run directory.",
               "Deleted ./../eplusssz.csv from the run directory.",
               "Deleted ./../epluszsz.csv from the run directory.",
               "Deleted ./../eplusout.eso from the run directory."
            ],
            "step_initial_condition" : "The following files were in the local run directory prior to the execution of this measure: in.osm, eplusout.sql, eplusssz.csv, eplusout.mtr, 000_btap_create_necb_prototype_building, sqlite.err, run.log, in.epw, pre-preprocess.idf, epluszsz.csv, eplusout.bnd, measure_attributes.json, eplusout.rdd, 002_btap_utility_tariffs, 001_BTAPHeatPumpAirSystem, 003_ServerDirectoryCleanup, eplusout.mtd, eplusout.eio, stdout-expandobject, eplusout.eso, 004_ServerDirectoryCleanup, in.idf, eplusout.shd, ., eplusout.end, eplustbl.htm, stdout-energyplus, eplusout.err, eplusout.audit, 003_btap_results, eplusout.mdd, started.job, ...",
            "step_result" : "Success",
            "step_values" : [],
            "step_warnings" : []
         }
      }
   ],
   "updated_at" : "20190517T152556Z",
   "weather_file" : "dummy.epw"
}
