{
   "completed_at" : "20190517T152556Z",
   "completed_status" : "Success",
   "created_at" : "2019-05-17 15:21:45 +0000",
   "current_step" : 5,
   "description" : "",
   "eplusout_err" : "Program Version,EnergyPlus, Version 8.9.0-eba93e8e1b, YMD=2019.05.17 15:24,\n   ************* Beginning Zone Sizing Calculations\n   ** Warning ** ProcessScheduleInput: Schedule:Day:Interval=\"ECONOMIZER MAX OA FRACTION 100 PCT DEFAULT\", Blank Schedule Type Limits Name input -- will not be validated.\n   ** Warning ** ProcessScheduleInput: Schedule:Day:Interval=\"SCHEDULE DAY 1\", Blank Schedule Type Limits Name input -- will not be validated.\n   ** Warning ** ProcessScheduleInput: Schedule:Day:Interval=\"SCHEDULE DAY 10\", Blank Schedule Type Limits Name input -- will not be validated.\n   ** Warning ** ProcessScheduleInput: Schedule:Day:Interval=\"SCHEDULE DAY 11\", Blank Schedule Type Limits Name input -- will not be validated.\n   ** Warning ** ProcessScheduleInput: Schedule:Day:Interval=\"SCHEDULE DAY 12\", Blank Schedule Type Limits Name input -- will not be validated.\n   ** Warning ** ProcessScheduleInput: Schedule:Day:Interval=\"SCHEDULE DAY 13\", Blank Schedule Type Limits Name input -- will not be validated.\n   ** Warning ** ProcessScheduleInput: Schedule:Day:Interval=\"SCHEDULE DAY 14\", Blank Schedule Type Limits Name input -- will not be validated.\n   ** Warning ** ProcessScheduleInput: Schedule:Day:Interval=\"SCHEDULE DAY 15\", Blank Schedule Type Limits Name input -- will not be validated.\n   ** Warning ** ProcessScheduleInput: Schedule:Day:Interval=\"SCHEDULE DAY 16\", Blank Schedule Type Limits Name input -- will not be validated.\n   ** Warning ** ProcessScheduleInput: Schedule:Day:Interval=\"SCHEDULE DAY 17\", Blank Schedule Type Limits Name input -- will not be validated.\n   ** Warning ** ProcessScheduleInput: Schedule:Day:Interval=\"SCHEDULE DAY 18\", Blank Schedule Type Limits Name input -- will not be validated.\n   ** Warning ** ProcessScheduleInput: Schedule:Day:Interval=\"SCHEDULE DAY 19\", Blank Schedule Type Limits Name input -- will not be validated.\n   ** Warning ** ProcessScheduleInput: Schedule:Day:Interval=\"SCHEDULE DAY 2\", Blank Schedule Type Limits Name input -- will not be validated.\n   ** Warning ** ProcessScheduleInput: Schedule:Day:Interval=\"SCHEDULE DAY 20\", Blank Schedule Type Limits Name input -- will not be validated.\n   ** Warning ** ProcessScheduleInput: Schedule:Day:Interval=\"SCHEDULE DAY 21\", Blank Schedule Type Limits Name input -- will not be validated.\n   ** Warning ** ProcessScheduleInput: Schedule:Day:Interval=\"SCHEDULE DAY 22\", Blank Schedule Type Limits Name input -- will not be validated.\n   ** Warning ** ProcessScheduleInput: Schedule:Day:Interval=\"SCHEDULE DAY 23\", Blank Schedule Type Limits Name input -- will not be validated.\n   ** Warning ** ProcessScheduleInput: Schedule:Day:Interval=\"SCHEDULE DAY 24\", Blank Schedule Type Limits Name input -- will not be validated.\n   ** Warning ** ProcessScheduleInput: Schedule:Day:Interval=\"SCHEDULE DAY 25\", Blank Schedule Type Limits Name input -- will not be validated.\n   ** Warning ** ProcessScheduleInput: Schedule:Day:Interval=\"SCHEDULE DAY 26\", Blank Schedule Type Limits Name input -- will not be validated.\n   ** Warning ** ProcessScheduleInput: Schedule:Day:Interval=\"SCHEDULE DAY 27\", Blank Schedule Type Limits Name input -- will not be validated.\n   ** Warning ** ProcessScheduleInput: Schedule:Day:Interval=\"SCHEDULE DAY 28\", Blank Schedule Type Limits Name input -- will not be validated.\n   ** Warning ** ProcessScheduleInput: Schedule:Day:Interval=\"SCHEDULE DAY 29\", Blank Schedule Type Limits Name input -- will not be validated.\n   ** Warning ** ProcessScheduleInput: Schedule:Day:Interval=\"SCHEDULE DAY 30\", Blank Schedule Type Limits Name input -- will not be validated.\n   ** Warning ** ProcessScheduleInput: Schedule:Day:Interval=\"SCHEDULE DAY 31\", Blank Schedule Type Limits Name input -- will not be validated.\n   ** Warning ** ProcessScheduleInput: Schedule:Day:Interval=\"SCHEDULE DAY 32\", Blank Schedule Type Limits Name input -- will not be validated.\n   ** Warning ** ProcessScheduleInput: Schedule:Day:Interval=\"SCHEDULE DAY 33\", Blank Schedule Type Limits Name input -- will not be validated.\n   ** Warning ** ProcessScheduleInput: Schedule:Day:Interval=\"SCHEDULE DAY 34\", Blank Schedule Type Limits Name input -- will not be validated.\n   ** Warning ** ProcessScheduleInput: Schedule:Day:Interval=\"SCHEDULE DAY 35\", Blank Schedule Type Limits Name input -- will not be validated.\n   ** Warning ** ProcessScheduleInput: Schedule:Day:Interval=\"SCHEDULE DAY 36\", Blank Schedule Type Limits Name input -- will not be validated.\n   ** Warning ** ProcessScheduleInput: Schedule:Day:Interval=\"SCHEDULE DAY 37\", Blank Schedule Type Limits Name input -- will not be validated.\n   ** Warning ** ProcessScheduleInput: Schedule:Day:Interval=\"SCHEDULE DAY 38\", Blank Schedule Type Limits Name input -- will not be validated.\n   ** Warning ** ProcessScheduleInput: Schedule:Day:Interval=\"SCHEDULE DAY 39\", Blank Schedule Type Limits Name input -- will not be validated.\n   ** Warning ** ProcessScheduleInput: Schedule:Day:Interval=\"SCHEDULE DAY 40\", Blank Schedule Type Limits Name input -- will not be validated.\n   ** Warning ** ProcessScheduleInput: Schedule:Day:Interval=\"SCHEDULE DAY 41\", Blank Schedule Type Limits Name input -- will not be validated.\n   ** Warning ** ProcessScheduleInput: Schedule:Day:Interval=\"SCHEDULE DAY 42\", Blank Schedule Type Limits Name input -- will not be validated.\n   ** Warning ** ProcessScheduleInput: Schedule:Day:Interval=\"SCHEDULE DAY 43\", Blank Schedule Type Limits Name input -- will not be validated.\n   ** Warning ** ProcessScheduleInput: Schedule:Day:Interval=\"SCHEDULE DAY 44\", Blank Schedule Type Limits Name input -- will not be validated.\n   ** Warning ** ProcessScheduleInput: Schedule:Day:Interval=\"SCHEDULE DAY 45\", Blank Schedule Type Limits Name input -- will not be validated.\n   ** Warning ** ProcessScheduleInput: Schedule:Day:Interval=\"SCHEDULE DAY 46\", Blank Schedule Type Limits Name input -- will not be validated.\n   ** Warning ** ProcessScheduleInput: Schedule:Day:Interval=\"SCHEDULE DAY 47\", Blank Schedule Type Limits Name input -- will not be validated.\n   ** Warning ** ProcessScheduleInput: Schedule:Day:Interval=\"SCHEDULE DAY 48\", Blank Schedule Type Limits Name input -- will not be validated.\n   ** Warning ** ProcessScheduleInput: Schedule:Day:Interval=\"SCHEDULE DAY 49\", Blank Schedule Type Limits Name input -- will not be validated.\n   ** Warning ** ProcessScheduleInput: Schedule:Day:Interval=\"SCHEDULE DAY 50\", Blank Schedule Type Limits Name input -- will not be validated.\n   ** Warning ** ProcessScheduleInput: Schedule:Day:Interval=\"SCHEDULE DAY 51\", Blank Schedule Type Limits Name input -- will not be validated.\n   ** Warning ** ProcessScheduleInput: Schedule:Day:Interval=\"SCHEDULE DAY 52\", Blank Schedule Type Limits Name input -- will not be validated.\n   ** Warning ** ProcessScheduleInput: Schedule:Day:Interval=\"SCHEDULE DAY 53\", Blank Schedule Type Limits Name input -- will not be validated.\n   ** Warning ** ProcessScheduleInput: Schedule:Day:Interval=\"SCHEDULE DAY 54\", Blank Schedule Type Limits Name input -- will not be validated.\n   ** Warning ** ProcessScheduleInput: Schedule:Day:Interval=\"SCHEDULE DAY 55\", Blank Schedule Type Limits Name input -- will not be validated.\n   ** Warning ** ProcessScheduleInput: Schedule:Day:Interval=\"SCHEDULE DAY 56\", Blank Schedule Type Limits Name input -- will not be validated.\n   ** Warning ** ProcessScheduleInput: Schedule:Day:Interval=\"SCHEDULE DAY 57\", Blank Schedule Type Limits Name input -- will not be validated.\n   ** Warning ** ProcessScheduleInput: Schedule:Day:Interval=\"SCHEDULE DAY 58\", Blank Schedule Type Limits Name input -- will not be validated.\n   ** Warning ** ProcessScheduleInput: Schedule:Day:Interval=\"SCHEDULE DAY 59\", Blank Schedule Type Limits Name input -- will not be validated.\n   ** Warning ** ProcessScheduleInput: Schedule:Day:Interval=\"SCHEDULE DAY 6\", Blank Schedule Type Limits Name input -- will not be validated.\n   ** Warning ** ProcessScheduleInput: Schedule:Day:Interval=\"SCHEDULE DAY 60\", Blank Schedule Type Limits Name input -- will not be validated.\n   ** Warning ** ProcessScheduleInput: Schedule:Day:Interval=\"SCHEDULE DAY 61\", Blank Schedule Type Limits Name input -- will not be validated.\n   ** Warning ** ProcessScheduleInput: Schedule:Day:Interval=\"SCHEDULE DAY 62\", Blank Schedule Type Limits Name input -- will not be validated.\n   ** Warning ** ProcessScheduleInput: Schedule:Day:Interval=\"SCHEDULE DAY 63\", Blank Schedule Type Limits Name input -- will not be validated.\n   ** Warning ** ProcessScheduleInput: Schedule:Day:Interval=\"SCHEDULE DAY 64\", Blank Schedule Type Limits Name input -- will not be validated.\n   ** Warning ** ProcessScheduleInput: Schedule:Day:Interval=\"SCHEDULE DAY 65\", Blank Schedule Type Limits Name input -- will not be validated.\n   ** Warning ** ProcessScheduleInput: Schedule:Day:Interval=\"SCHEDULE DAY 66\", Blank Schedule Type Limits Name input -- will not be validated.\n   ** Warning ** ProcessScheduleInput: Schedule:Day:Interval=\"SCHEDULE DAY 67\", Blank Schedule Type Limits Name input -- will not be validated.\n   ** Warning ** ProcessScheduleInput: Schedule:Day:Interval=\"SCHEDULE DAY 68\", Blank Schedule Type Limits Name input -- will not be validated.\n   ** Warning ** ProcessScheduleInput: Schedule:Day:Interval=\"SCHEDULE DAY 69\", Blank Schedule Type Limits Name input -- will not be validated.\n   ** Warning ** ProcessScheduleInput: Schedule:Day:Interval=\"SCHEDULE DAY 7\", Blank Schedule Type Limits Name input -- will not be validated.\n   ** Warning ** ProcessScheduleInput: Schedule:Day:Interval=\"SCHEDULE DAY 70\", Blank Schedule Type Limits Name input -- will not be validated.\n   ** Warning ** ProcessScheduleInput: Schedule:Day:Interval=\"SCHEDULE DAY 71\", Blank Schedule Type Limits Name input -- will not be validated.\n   ** Warning ** ProcessScheduleInput: Schedule:Day:Interval=\"SCHEDULE DAY 72\", Blank Schedule Type Limits Name input -- will not be validated.\n   ** Warning ** ProcessScheduleInput: Schedule:Day:Interval=\"SCHEDULE DAY 73\", Blank Schedule Type Limits Name input -- will not be validated.\n   ** Warning ** ProcessScheduleInput: Schedule:Day:Interval=\"SCHEDULE DAY 74\", Blank Schedule Type Limits Name input -- will not be validated.\n   ** Warning ** ProcessScheduleInput: Schedule:Day:Interval=\"SCHEDULE DAY 75\", Blank Schedule Type Limits Name input -- will not be validated.\n   ** Warning ** ProcessScheduleInput: Schedule:Day:Interval=\"SCHEDULE DAY 76\", Blank Schedule Type Limits Name input -- will not be validated.\n   ** Warning ** ProcessScheduleInput: Schedule:Day:Interval=\"SCHEDULE DAY 77\", Blank Schedule Type Limits Name input -- will not be validated.\n   ** Warning ** ProcessScheduleInput: Schedule:Day:Interval=\"SCHEDULE DAY 78\", Blank Schedule Type Limits Name input -- will not be validated.\n   ** Warning ** ProcessScheduleInput: Schedule:Day:Interval=\"SCHEDULE DAY 79\", Blank Schedule Type Limits Name input -- will not be validated.\n   ** Warning ** ProcessScheduleInput: Schedule:Day:Interval=\"SCHEDULE DAY 8\", Blank Schedule Type Limits Name input -- will not be validated.\n   ** Warning ** ProcessScheduleInput: Schedule:Day:Interval=\"SCHEDULE DAY 9\", Blank Schedule Type Limits Name input -- will not be validated.\n   ** Warning ** ProcessScheduleInput: Schedule:Year=\"ECONOMIZER MAX OA FRACTION 100 PCT\", Blank Schedule Type Limits Name input -- will not be validated.\n   ** Warning ** ProcessScheduleInput: Schedule:Year=\"SCHEDULE RULESET 10\", Blank Schedule Type Limits Name input -- will not be validated.\n   ** Warning ** ProcessScheduleInput: Schedule:Year=\"SCHEDULE RULESET 11\", Blank Schedule Type Limits Name input -- will not be validated.\n   ** Warning ** ProcessScheduleInput: Schedule:Year=\"SCHEDULE RULESET 12\", Blank Schedule Type Limits Name input -- will not be validated.\n   ** Warning ** ProcessScheduleInput: Schedule:Year=\"SCHEDULE RULESET 13\", Blank Schedule Type Limits Name input -- will not be validated.\n   ** Warning ** ProcessScheduleInput: Schedule:Year=\"SCHEDULE RULESET 14\", Blank Schedule Type Limits Name input -- will not be validated.\n   ** Warning ** ProcessScheduleInput: Schedule:Year=\"SCHEDULE RULESET 15\", Blank Schedule Type Limits Name input -- will not be validated.\n   ** Warning ** ProcessScheduleInput: Schedule:Year=\"SCHEDULE RULESET 16\", Blank Schedule Type Limits Name input -- will not be validated.\n   ** Warning ** ProcessScheduleInput: Schedule:Year=\"SCHEDULE RULESET 17\", Blank Schedule Type Limits Name input -- will not be validated.\n   ** Warning ** ProcessScheduleInput: Schedule:Year=\"SCHEDULE RULESET 18\", Blank Schedule Type Limits Name input -- will not be validated.\n   ** Warning ** ProcessScheduleInput: Schedule:Year=\"SCHEDULE RULESET 19\", Blank Schedule Type Limits Name input -- will not be validated.\n   ** Warning ** ProcessScheduleInput: Schedule:Year=\"SCHEDULE RULESET 20\", Blank Schedule Type Limits Name input -- will not be validated.\n   ** Warning ** ProcessScheduleInput: Schedule:Year=\"SCHEDULE RULESET 21\", Blank Schedule Type Limits Name input -- will not be validated.\n   ** Warning ** ProcessScheduleInput: Schedule:Year=\"SCHEDULE RULESET 22\", Blank Schedule Type Limits Name input -- will not be validated.\n   ** Warning ** ProcessScheduleInput: Schedule:Year=\"SCHEDULE RULESET 23\", Blank Schedule Type Limits Name input -- will not be validated.\n   ** Warning ** ProcessScheduleInput: Schedule:Year=\"SCHEDULE RULESET 24\", Blank Schedule Type Limits Name input -- will not be validated.\n   ** Warning ** ProcessScheduleInput: Schedule:Year=\"SCHEDULE RULESET 25\", Blank Schedule Type Limits Name input -- will not be validated.\n   ** Warning ** ProcessScheduleInput: Schedule:Year=\"SCHEDULE RULESET 26\", Blank Schedule Type Limits Name input -- will not be validated.\n   ** Warning ** ProcessScheduleInput: Schedule:Year=\"SCHEDULE RULESET 27\", Blank Schedule Type Limits Name input -- will not be validated.\n   ** Warning ** ProcessScheduleInput: Schedule:Year=\"SCHEDULE RULESET 28\", Blank Schedule Type Limits Name input -- will not be validated.\n   ** Warning ** ProcessScheduleInput: Schedule:Year=\"SCHEDULE RULESET 29\", Blank Schedule Type Limits Name input -- will not be validated.\n   ** Warning ** ProcessScheduleInput: Schedule:Year=\"SCHEDULE RULESET 3\", Blank Schedule Type Limits Name input -- will not be validated.\n   ** Warning ** ProcessScheduleInput: Schedule:Year=\"SCHEDULE RULESET 30\", Blank Schedule Type Limits Name input -- will not be validated.\n   ** Warning ** ProcessScheduleInput: Schedule:Year=\"SCHEDULE RULESET 31\", Blank Schedule Type Limits Name input -- will not be validated.\n   ** Warning ** ProcessScheduleInput: Schedule:Year=\"SCHEDULE RULESET 32\", Blank Schedule Type Limits Name input -- will not be validated.\n   ** Warning ** ProcessScheduleInput: Schedule:Year=\"SCHEDULE RULESET 33\", Blank Schedule Type Limits Name input -- will not be validated.\n   ** Warning ** ProcessScheduleInput: Schedule:Year=\"SCHEDULE RULESET 34\", Blank Schedule Type Limits Name input -- will not be validated.\n   ** Warning ** ProcessScheduleInput: Schedule:Year=\"SCHEDULE RULESET 35\", Blank Schedule Type Limits Name input -- will not be validated.\n   ** Warning ** ProcessScheduleInput: Schedule:Year=\"SCHEDULE RULESET 36\", Blank Schedule Type Limits Name input -- will not be validated.\n   ** Warning ** ProcessScheduleInput: Schedule:Year=\"SCHEDULE RULESET 37\", Blank Schedule Type Limits Name input -- will not be validated.\n   ** Warning ** ProcessScheduleInput: Schedule:Year=\"SCHEDULE RULESET 38\", Blank Schedule Type Limits Name input -- will not be validated.\n   ** Warning ** ProcessScheduleInput: Schedule:Year=\"SCHEDULE RULESET 39\", Blank Schedule Type Limits Name input -- will not be validated.\n   ** Warning ** ProcessScheduleInput: Schedule:Year=\"SCHEDULE RULESET 4\", Blank Schedule Type Limits Name input -- will not be validated.\n   ** Warning ** ProcessScheduleInput: Schedule:Year=\"SCHEDULE RULESET 40\", Blank Schedule Type Limits Name input -- will not be validated.\n   ** Warning ** ProcessScheduleInput: Schedule:Year=\"SCHEDULE RULESET 41\", Blank Schedule Type Limits Name input -- will not be validated.\n   ** Warning ** ProcessScheduleInput: Schedule:Year=\"SCHEDULE RULESET 42\", Blank Schedule Type Limits Name input -- will not be validated.\n   ** Warning ** ProcessScheduleInput: Schedule:Year=\"SCHEDULE RULESET 43\", Blank Schedule Type Limits Name input -- will not be validated.\n   ** Warning ** ProcessScheduleInput: Schedule:Year=\"SCHEDULE RULESET 44\", Blank Schedule Type Limits Name input -- will not be validated.\n   ** Warning ** ProcessScheduleInput: Schedule:Year=\"SCHEDULE RULESET 45\", Blank Schedule Type Limits Name input -- will not be validated.\n   ** Warning ** ProcessScheduleInput: Schedule:Year=\"SCHEDULE RULESET 46\", Blank Schedule Type Limits Name input -- will not be validated.\n   ** Warning ** ProcessScheduleInput: Schedule:Year=\"SCHEDULE RULESET 47\", Blank Schedule Type Limits Name input -- will not be validated.\n   ** Warning ** ProcessScheduleInput: Schedule:Year=\"SCHEDULE RULESET 48\", Blank Schedule Type Limits Name input -- will not be validated.\n   ** Warning ** ProcessScheduleInput: Schedule:Year=\"SCHEDULE RULESET 49\", Blank Schedule Type Limits Name input -- will not be validated.\n   ** Warning ** ProcessScheduleInput: Schedule:Year=\"SCHEDULE RULESET 5\", Blank Schedule Type Limits Name input -- will not be validated.\n   ** Warning ** ProcessScheduleInput: Schedule:Year=\"SCHEDULE RULESET 50\", Blank Schedule Type Limits Name input -- will not be validated.\n   ** Warning ** ProcessScheduleInput: Schedule:Year=\"SCHEDULE RULESET 51\", Blank Schedule Type Limits Name input -- will not be validated.\n   ** Warning ** ProcessScheduleInput: Schedule:Year=\"SCHEDULE RULESET 52\", Blank Schedule Type Limits Name input -- will not be validated.\n   ** Warning ** ProcessScheduleInput: Schedule:Year=\"SCHEDULE RULESET 53\", Blank Schedule Type Limits Name input -- will not be validated.\n   ** Warning ** ProcessScheduleInput: Schedule:Year=\"SCHEDULE RULESET 54\", Blank Schedule Type Limits Name input -- will not be validated.\n   ** Warning ** ProcessScheduleInput: Schedule:Year=\"SCHEDULE RULESET 55\", Blank Schedule Type Limits Name input -- will not be validated.\n   ** Warning ** ProcessScheduleInput: Schedule:Year=\"SCHEDULE RULESET 56\", Blank Schedule Type Limits Name input -- will not be validated.\n   ** Warning ** ProcessScheduleInput: Schedule:Year=\"SCHEDULE RULESET 57\", Blank Schedule Type Limits Name input -- will not be validated.\n   ** Warning ** ProcessScheduleInput: Schedule:Year=\"SCHEDULE RULESET 58\", Blank Schedule Type Limits Name input -- will not be validated.\n   ** Warning ** ProcessScheduleInput: Schedule:Year=\"SCHEDULE RULESET 59\", Blank Schedule Type Limits Name input -- will not be validated.\n   ** Warning ** ProcessScheduleInput: Schedule:Year=\"SCHEDULE RULESET 6\", Blank Schedule Type Limits Name input -- will not be validated.\n   ** Warning ** ProcessScheduleInput: Schedule:Year=\"SCHEDULE RULESET 60\", Blank Schedule Type Limits Name input -- will not be validated.\n   ** Warning ** ProcessScheduleInput: Schedule:Year=\"SCHEDULE RULESET 61\", Blank Schedule Type Limits Name input -- will not be validated.\n   ** Warning ** ProcessScheduleInput: Schedule:Year=\"SCHEDULE RULESET 62\", Blank Schedule Type Limits Name input -- will not be validated.\n   ** Warning ** ProcessScheduleInput: Schedule:Year=\"SCHEDULE RULESET 63\", Blank Schedule Type Limits Name input -- will not be validated.\n   ** Warning ** ProcessScheduleInput: Schedule:Year=\"SCHEDULE RULESET 64\", Blank Schedule Type Limits Name input -- will not be validated.\n   ** Warning ** ProcessScheduleInput: Schedule:Year=\"SCHEDULE RULESET 65\", Blank Schedule Type Limits Name input -- will not be validated.\n   ** Warning ** ProcessScheduleInput: Schedule:Year=\"SCHEDULE RULESET 66\", Blank Schedule Type Limits Name input -- will not be validated.\n   ** Warning ** ProcessScheduleInput: Schedule:Year=\"SCHEDULE RULESET 67\", Blank Schedule Type Limits Name input -- will not be validated.\n   ** Warning ** ProcessScheduleInput: Schedule:Year=\"SCHEDULE RULESET 68\", Blank Schedule Type Limits Name input -- will not be validated.\n   ** Warning ** ProcessScheduleInput: Schedule:Year=\"SCHEDULE RULESET 69\", Blank Schedule Type Limits Name input -- will not be validated.\n   ** Warning ** ProcessScheduleInput: Schedule:Year=\"SCHEDULE RULESET 7\", Blank Schedule Type Limits Name input -- will not be validated.\n   ** Warning ** ProcessScheduleInput: Schedule:Year=\"SCHEDULE RULESET 70\", Blank Schedule Type Limits Name input -- will not be validated.\n   ** Warning ** ProcessScheduleInput: Schedule:Year=\"SCHEDULE RULESET 71\", Blank Schedule Type Limits Name input -- will not be validated.\n   ** Warning ** ProcessScheduleInput: Schedule:Year=\"SCHEDULE RULESET 72\", Blank Schedule Type Limits Name input -- will not be validated.\n   ** Warning ** ProcessScheduleInput: Schedule:Year=\"SCHEDULE RULESET 73\", Blank Schedule Type Limits Name input -- will not be validated.\n   ** Warning ** ProcessScheduleInput: Schedule:Year=\"SCHEDULE RULESET 74\", Blank Schedule Type Limits Name input -- will not be validated.\n   ** Warning ** ProcessScheduleInput: Schedule:Year=\"SCHEDULE RULESET 8\", Blank Schedule Type Limits Name input -- will not be validated.\n   ** Warning ** ProcessScheduleInput: Schedule:Year=\"SCHEDULE RULESET 9\", Blank Schedule Type Limits Name input -- will not be validated.\n   ** Warning ** ProcessScheduleInput: Schedule:Constant=\"ALWAYS ON CONTINUOUS\", Blank Schedule Type Limits Name input -- will not be validated.\n   ** Warning ** CheckUsedConstructions: There are 17 nominally unused constructions in input.\n   **   ~~~   ** For explicit details on each unused construction, use Output:Diagnostics,DisplayExtraWarnings;\n   ** Warning ** GetInternalHeatGains: People Combination of ZoneList and Object Name generate a name too long.\n   **   ~~~   ** Object Name=\"SPACE FUNCTION CONFERENCE/MEETING/MULTI-PURPOSE ROOM PEOPLE\".\n   **   ~~~   ** ZoneList/Zone Name=\"SP-OFFICE SYS-3 FLR-1 SCH-C HPLCMT-SOUTH ZN\".\n   **   ~~~   ** Item length=[102] > Maximum Length=[100]. You may need to shorten the names.\n   **   ~~~   ** Shortening the Object Name by [3] characters will assure uniqueness for this ZoneList.\n   **   ~~~   ** name that will be used (may be needed in reporting)=\"SP-OFFICE SYS-3 FLR-1 SCH-C HPLCMT-SOUTH ZN SPACE FUNCTION CONFERENCE/MEETING/MULTI-PURPOSE ROOM PEOPLE\".\n   ** Warning ** GetInternalHeatGains: People Combination of ZoneList and Object Name generate a name too long.\n   **   ~~~   ** Object Name=\"SPACE FUNCTION CORRIDOR/TRANSITION AREA OTHER-SCH-G PEOPLE\".\n   **   ~~~   ** ZoneList/Zone Name=\"SP-G CORRIDOR SYS-1 FLR-1 SCH-G HPLCMT-EAST ZN\".\n   **   ~~~   ** Item length=[104] > Maximum Length=[100]. You may need to shorten the names.\n   **   ~~~   ** Shortening the Object Name by [5] characters will assure uniqueness for this ZoneList.\n   **   ~~~   ** name that will be used (may be needed in reporting)=\"SP-G CORRIDOR SYS-1 FLR-1 SCH-G HPLCMT-EAST ZN SPACE FUNCTION CORRIDOR/TRANSITION AREA OTHER-SCH-G PEOPLE\".\n   ** Warning ** GetInternalHeatGains: People Combination of ZoneList and Object Name generate a name too long.\n   **   ~~~   ** Object Name=\"SPACE FUNCTION CORRIDOR/TRANSITION AREA OTHER-SCH-G PEOPLE\".\n   **   ~~~   ** ZoneList/Zone Name=\"SP-M CORRIDOR SYS-1 FLR-2 SCH-G HPLCMT-EAST ZN\".\n   **   ~~~   ** Item length=[104] > Maximum Length=[100]. You may need to shorten the names.\n   **   ~~~   ** Shortening the Object Name by [5] characters will assure uniqueness for this ZoneList.\n   **   ~~~   ** name that will be used (may be needed in reporting)=\"SP-M CORRIDOR SYS-1 FLR-2 SCH-G HPLCMT-EAST ZN SPACE FUNCTION CORRIDOR/TRANSITION AREA OTHER-SCH-G PEOPLE\".\n   ** Warning ** GetInternalHeatGains: People Combination of ZoneList and Object Name generate a name too long.\n   **   ~~~   ** Object Name=\"SPACE FUNCTION CORRIDOR/TRANSITION AREA OTHER-SCH-G PEOPLE\".\n   **   ~~~   ** ZoneList/Zone Name=\"SP-T CORRIDOR SYS-1 FLR-3 SCH-G HPLCMT-WEST ZN\".\n   **   ~~~   ** Item length=[104] > Maximum Length=[100]. You may need to shorten the names.\n   **   ~~~   ** Shortening the Object Name by [5] characters will assure uniqueness for this ZoneList.\n   **   ~~~   ** name that will be used (may be needed in reporting)=\"SP-T CORRIDOR SYS-1 FLR-3 SCH-G HPLCMT-WEST ZN SPACE FUNCTION CORRIDOR/TRANSITION AREA OTHER-SCH-G PEOPLE\".\n   ** Warning ** GetInternalHeatGains: Lights Combination of ZoneList and Object Name generate a name too long.\n   **   ~~~   ** Object Name=\"SPACE FUNCTION CONFERENCE/MEETING/MULTI-PURPOSE ROOM LIGHTS\".\n   **   ~~~   ** ZoneList/Zone Name=\"SP-OFFICE SYS-3 FLR-1 SCH-C HPLCMT-SOUTH ZN\".\n   **   ~~~   ** Item length=[102] > Maximum Length=[100]. You may need to shorten the names.\n   **   ~~~   ** Shortening the Object Name by [3] characters will assure uniqueness for this ZoneList.\n   **   ~~~   ** name that will be used (may be needed in reporting)=\"SP-OFFICE SYS-3 FLR-1 SCH-C HPLCMT-SOUTH ZN SPACE FUNCTION CONFERENCE/MEETING/MULTI-PURPOSE ROOM LIGHTS\".\n   ** Warning ** GetInternalHeatGains: Lights Combination of ZoneList and Object Name generate a name too long.\n   **   ~~~   ** Object Name=\"SPACE FUNCTION CORRIDOR/TRANSITION AREA OTHER-SCH-G LIGHTS\".\n   **   ~~~   ** ZoneList/Zone Name=\"SP-G CORRIDOR SYS-1 FLR-1 SCH-G HPLCMT-EAST ZN\".\n   **   ~~~   ** Item length=[104] > Maximum Length=[100]. You may need to shorten the names.\n   **   ~~~   ** Shortening the Object Name by [5] characters will assure uniqueness for this ZoneList.\n   **   ~~~   ** name that will be used (may be needed in reporting)=\"SP-G CORRIDOR SYS-1 FLR-1 SCH-G HPLCMT-EAST ZN SPACE FUNCTION CORRIDOR/TRANSITION AREA OTHER-SCH-G LIGHTS\".\n   ** Warning ** GetInternalHeatGains: Lights Combination of ZoneList and Object Name generate a name too long.\n   **   ~~~   ** Object Name=\"SPACE FUNCTION CORRIDOR/TRANSITION AREA OTHER-SCH-G LIGHTS\".\n   **   ~~~   ** ZoneList/Zone Name=\"SP-M CORRIDOR SYS-1 FLR-2 SCH-G HPLCMT-EAST ZN\".\n   **   ~~~   ** Item length=[104] > Maximum Length=[100]. You may need to shorten the names.\n   **   ~~~   ** Shortening the Object Name by [5] characters will assure uniqueness for this ZoneList.\n   **   ~~~   ** name that will be used (may be needed in reporting)=\"SP-M CORRIDOR SYS-1 FLR-2 SCH-G HPLCMT-EAST ZN SPACE FUNCTION CORRIDOR/TRANSITION AREA OTHER-SCH-G LIGHTS\".\n   ** Warning ** GetInternalHeatGains: Lights Combination of ZoneList and Object Name generate a name too long.\n   **   ~~~   ** Object Name=\"SPACE FUNCTION CORRIDOR/TRANSITION AREA OTHER-SCH-G LIGHTS\".\n   **   ~~~   ** ZoneList/Zone Name=\"SP-T CORRIDOR SYS-1 FLR-3 SCH-G HPLCMT-WEST ZN\".\n   **   ~~~   ** Item length=[104] > Maximum Length=[100]. You may need to shorten the names.\n   **   ~~~   ** Shortening the Object Name by [5] characters will assure uniqueness for this ZoneList.\n   **   ~~~   ** name that will be used (may be needed in reporting)=\"SP-T CORRIDOR SYS-1 FLR-3 SCH-G HPLCMT-WEST ZN SPACE FUNCTION CORRIDOR/TRANSITION AREA OTHER-SCH-G LIGHTS\".\n   ** Warning ** GetInternalHeatGains: ElectricEquipment Combination of ZoneList and Object Name generate a name too long.\n   **   ~~~   ** Object Name=\"SPACE FUNCTION CONFERENCE/MEETING/MULTI-PURPOSE ROOM ELEC EQUIP\".\n   **   ~~~   ** ZoneList/Zone Name=\"SP-OFFICE SYS-3 FLR-1 SCH-C HPLCMT-SOUTH ZN\".\n   **   ~~~   ** Item length=[106] > Maximum Length=[100]. You may need to shorten the names.\n   **   ~~~   ** Shortening the Object Name by [7] characters will assure uniqueness for this ZoneList.\n   **   ~~~   ** name that will be used (may be needed in reporting)=\"SP-OFFICE SYS-3 FLR-1 SCH-C HPLCMT-SOUTH ZN SPACE FUNCTION CONFERENCE/MEETING/MULTI-PURPOSE ROOM ELEC EQUIP\".\n   ************* Beginning System Sizing Calculations\n   ** Warning ** GetDXCoils: Coil:Cooling:DX:SingleSpeed=\"COIL COOLING DX SINGLE SPEED 6 7KBTU/HR 11.0EER\", invalid\n   **   ~~~   ** ...Part Load Fraction Correlation Curve Name = DXCOOL-NECB2011-REF-COOLPLFFPLR has out of range value.\n   **   ~~~   ** ...Curve maximum must be <= 1.0, curve max at PLR = 0.99 is 1.015\n   **   ~~~   ** ...Setting curve maximum to 1.0 and simulation continues.\n   ************* Beginning Plant Sizing Calculations\n   ** Warning ** The Standard Ratings is calculated for Coil:Cooling:DX:SingleSpeed = COIL COOLING DX SINGLE SPEED 6 7KBTU/HR 11.0EER but not at the AHRI test condition due to curve out of bound.\n   **   ~~~   **  Review the Standard Ratings calculations in the Engineering Reference for this coil type. Also, use Output:Diagnostics, DisplayExtraWarnings for further guidance.\n   ** Warning ** The Standard Ratings is calculated for Coil:Cooling:DX:SingleSpeed = COIL COOLING DX SINGLE SPEED 2 6KBTU/HR 11.0EER but not at the AHRI test condition due to curve out of bound.\n   **   ~~~   **  Review the Standard Ratings calculations in the Engineering Reference for this coil type. Also, use Output:Diagnostics, DisplayExtraWarnings for further guidance.\n   ** Warning ** The Standard Ratings is calculated for Coil:Cooling:DX:SingleSpeed = COIL COOLING DX SINGLE SPEED 3 6KBTU/HR 11.0EER but not at the AHRI test condition due to curve out of bound.\n   **   ~~~   **  Review the Standard Ratings calculations in the Engineering Reference for this coil type. Also, use Output:Diagnostics, DisplayExtraWarnings for further guidance.\n   ** Warning ** The Standard Ratings is calculated for Coil:Cooling:DX:SingleSpeed = COIL COOLING DX SINGLE SPEED 4 13KBTU/HR 9.7EER but not at the AHRI test condition due to curve out of bound.\n   **   ~~~   **  Review the Standard Ratings calculations in the Engineering Reference for this coil type. Also, use Output:Diagnostics, DisplayExtraWarnings for further guidance.\n   ** Warning ** The Standard Ratings is calculated for Coil:Cooling:DX:SingleSpeed = COIL COOLING DX SINGLE SPEED 5 13KBTU/HR 9.7EER but not at the AHRI test condition due to curve out of bound.\n   **   ~~~   **  Review the Standard Ratings calculations in the Engineering Reference for this coil type. Also, use Output:Diagnostics, DisplayExtraWarnings for further guidance.\n   ** Warning ** The Standard Ratings is calculated for Coil:Cooling:DX:SingleSpeed = COIL COOLING DX SINGLE SPEED 7 11KBTU/HR 10.2EER but not at the AHRI test condition due to curve out of bound.\n   **   ~~~   **  Review the Standard Ratings calculations in the Engineering Reference for this coil type. Also, use Output:Diagnostics, DisplayExtraWarnings for further guidance.\n   ** Warning ** The Standard Ratings is calculated for Coil:Cooling:DX:SingleSpeed = COIL COOLING DX SINGLE SPEED 8 11KBTU/HR 10.2EER but not at the AHRI test condition due to curve out of bound.\n   **   ~~~   **  Review the Standard Ratings calculations in the Engineering Reference for this coil type. Also, use Output:Diagnostics, DisplayExtraWarnings for further guidance.\n   ** Warning ** The Standard Ratings is calculated for Coil:Cooling:DX:SingleSpeed = COIL COOLING DX SINGLE SPEED 9 14KBTU/HR 9.4EER but not at the AHRI test condition due to curve out of bound.\n   **   ~~~   **  Review the Standard Ratings calculations in the Engineering Reference for this coil type. Also, use Output:Diagnostics, DisplayExtraWarnings for further guidance.\n   ** Warning ** The Standard Ratings is calculated for Coil:Cooling:DX:SingleSpeed = COIL COOLING DX SINGLE SPEED 14 8KBTU/HR 10.9EER but not at the AHRI test condition due to curve out of bound.\n   **   ~~~   **  Review the Standard Ratings calculations in the Engineering Reference for this coil type. Also, use Output:Diagnostics, DisplayExtraWarnings for further guidance.\n   ** Warning ** The Standard Ratings is calculated for Coil:Cooling:DX:SingleSpeed = COIL COOLING DX SINGLE SPEED 10 7KBTU/HR 11.0EER but not at the AHRI test condition due to curve out of bound.\n   **   ~~~   **  Review the Standard Ratings calculations in the Engineering Reference for this coil type. Also, use Output:Diagnostics, DisplayExtraWarnings for further guidance.\n   ** Warning ** The Standard Ratings is calculated for Coil:Cooling:DX:SingleSpeed = COIL COOLING DX SINGLE SPEED 11 7KBTU/HR 11.0EER but not at the AHRI test condition due to curve out of bound.\n   **   ~~~   **  Review the Standard Ratings calculations in the Engineering Reference for this coil type. Also, use Output:Diagnostics, DisplayExtraWarnings for further guidance.\n   ** Warning ** The Standard Ratings is calculated for Coil:Cooling:DX:SingleSpeed = COIL COOLING DX SINGLE SPEED 12 14KBTU/HR 9.5EER but not at the AHRI test condition due to curve out of bound.\n   **   ~~~   **  Review the Standard Ratings calculations in the Engineering Reference for this coil type. Also, use Output:Diagnostics, DisplayExtraWarnings for further guidance.\n   ** Warning ** The Standard Ratings is calculated for Coil:Cooling:DX:SingleSpeed = COIL COOLING DX SINGLE SPEED 13 15KBTU/HR 9.3EER but not at the AHRI test condition due to curve out of bound.\n   **   ~~~   **  Review the Standard Ratings calculations in the Engineering Reference for this coil type. Also, use Output:Diagnostics, DisplayExtraWarnings for further guidance.\n   ** Warning ** The Standard Ratings is calculated for Coil:Cooling:DX:SingleSpeed = COIL COOLING DX SINGLE SPEED 15 12KBTU/HR 10.0EER but not at the AHRI test condition due to curve out of bound.\n   **   ~~~   **  Review the Standard Ratings calculations in the Engineering Reference for this coil type. Also, use Output:Diagnostics, DisplayExtraWarnings for further guidance.\n   ** Warning ** The Standard Ratings is calculated for Coil:Cooling:DX:SingleSpeed = COIL COOLING DX SINGLE SPEED 16 12KBTU/HR 10.0EER but not at the AHRI test condition due to curve out of bound.\n   **   ~~~   **  Review the Standard Ratings calculations in the Engineering Reference for this coil type. Also, use Output:Diagnostics, DisplayExtraWarnings for further guidance.\n   ** Warning ** The Standard Ratings is calculated for Coil:Cooling:DX:SingleSpeed = COIL COOLING DX SINGLE SPEED 17 15KBTU/HR 9.4EER but not at the AHRI test condition due to curve out of bound.\n   **   ~~~   **  Review the Standard Ratings calculations in the Engineering Reference for this coil type. Also, use Output:Diagnostics, DisplayExtraWarnings for further guidance.\n   ** Warning ** The Standard Ratings is calculated for Coil:Cooling:DX:SingleSpeed = COIL COOLING DX SINGLE SPEED 18 16KBTU/HR 9.3EER but not at the AHRI test condition due to curve out of bound.\n   **   ~~~   **  Review the Standard Ratings calculations in the Engineering Reference for this coil type. Also, use Output:Diagnostics, DisplayExtraWarnings for further guidance.\n   ** Warning ** The Standard Ratings is calculated for Coil:Cooling:DX:SingleSpeed = COIL COOLING DX SINGLE SPEED 23 13KBTU/HR 9.7EER but not at the AHRI test condition due to curve out of bound.\n   **   ~~~   **  Review the Standard Ratings calculations in the Engineering Reference for this coil type. Also, use Output:Diagnostics, DisplayExtraWarnings for further guidance.\n   ** Warning ** The Standard Ratings is calculated for Coil:Cooling:DX:SingleSpeed = COIL COOLING DX SINGLE SPEED 19 12KBTU/HR 10.0EER but not at the AHRI test condition due to curve out of bound.\n   **   ~~~   **  Review the Standard Ratings calculations in the Engineering Reference for this coil type. Also, use Output:Diagnostics, DisplayExtraWarnings for further guidance.\n   ** Warning ** The Standard Ratings is calculated for Coil:Cooling:DX:SingleSpeed = COIL COOLING DX SINGLE SPEED 20 12KBTU/HR 10.0EER but not at the AHRI test condition due to curve out of bound.\n   **   ~~~   **  Review the Standard Ratings calculations in the Engineering Reference for this coil type. Also, use Output:Diagnostics, DisplayExtraWarnings for further guidance.\n   ** Warning ** The Standard Ratings is calculated for Coil:Cooling:DX:SingleSpeed = COIL COOLING DX SINGLE SPEED 21 17KBTU/HR 9.3EER but not at the AHRI test condition due to curve out of bound.\n   **   ~~~   **  Review the Standard Ratings calculations in the Engineering Reference for this coil type. Also, use Output:Diagnostics, DisplayExtraWarnings for further guidance.\n   ** Warning ** The Standard Ratings is calculated for Coil:Cooling:DX:SingleSpeed = COIL COOLING DX SINGLE SPEED 22 19KBTU/HR 9.3EER but not at the AHRI test condition due to curve out of bound.\n   **   ~~~   **  Review the Standard Ratings calculations in the Engineering Reference for this coil type. Also, use Output:Diagnostics, DisplayExtraWarnings for further guidance.\n   ** Warning ** The Standard Ratings is calculated for Coil:Cooling:DX:SingleSpeed = COIL COOLING DX SINGLE SPEED 24 18KBTU/HR 9.3EER but not at the AHRI test condition due to curve out of bound.\n   **   ~~~   **  Review the Standard Ratings calculations in the Engineering Reference for this coil type. Also, use Output:Diagnostics, DisplayExtraWarnings for further guidance.\n   ** Warning ** The Standard Ratings is calculated for Coil:Cooling:DX:SingleSpeed = COIL COOLING DX SINGLE SPEED 25 19KBTU/HR 9.3EER but not at the AHRI test condition due to curve out of bound.\n   **   ~~~   **  Review the Standard Ratings calculations in the Engineering Reference for this coil type. Also, use Output:Diagnostics, DisplayExtraWarnings for further guidance.\n   ** Warning ** The Standard Ratings is calculated for Coil:Cooling:DX:SingleSpeed = COIL COOLING DX SINGLE SPEED 26 21KBTU/HR 9.3EER but not at the AHRI test condition due to curve out of bound.\n   **   ~~~   **  Review the Standard Ratings calculations in the Engineering Reference for this coil type. Also, use Output:Diagnostics, DisplayExtraWarnings for further guidance.\n   ** Warning ** The Standard Ratings is calculated for Coil:Cooling:DX:SingleSpeed = COIL COOLING DX SINGLE SPEED 27 22KBTU/HR 9.3EER but not at the AHRI test condition due to curve out of bound.\n   **   ~~~   **  Review the Standard Ratings calculations in the Engineering Reference for this coil type. Also, use Output:Diagnostics, DisplayExtraWarnings for further guidance.\n   ** Warning ** GetVarSpeedCoilInput: COIL:HEATING:DX:VARIABLESPEED=\"SYS_1_MAKE-UP AIR UNIT CCASHP DX HTG COIL\", \n   **   ~~~   ** ...Minimum Outdoor Dry-Bulb Temperature for Compressor Operation = 0.0 for defrost control = TIMED.\n   ** Warning ** GetVarSpeedCoilInput: COIL:HEATING:DX:VARIABLESPEED=\"SYS_3_PSZ SP-OFFICE SYS-3 FLR-1 SCH-C HPLCMT-SOUTH ZN CCASHP DX HTG COIL\", \n   **   ~~~   ** ...Minimum Outdoor Dry-Bulb Temperature for Compressor Operation = 0.0 for defrost control = TIMED.\n   ** Warning ** Output:Meter: invalid Key Name=\"GAS:FACILITY\" - not found.\n   ** Warning ** Output:Meter: invalid Key Name=\"DISTRICTCOOLING:FACILITY\" - not found.\n   ** Warning ** Output:Meter: invalid Key Name=\"DISTRICTHEATING:FACILITY\" - not found.\n   ** Warning ** Output:Meter:MeterFileOnly: invalid Key Name=\"GAS:FACILITY\" - not found.\n   ** Warning ** Output:Meter:MeterFileOnly: invalid Key Name=\"GAS:FACILITY\" - not found.\n   ** Warning ** Output:Meter:MeterFileOnly requested for \"Electricity:Facility\" (TimeStep), already on \"Output:Meter\". Will report to both eplusout.eso and eplusout.mtr\n   ************* Testing Individual Branch Integrity\n   ************* All Branches passed integrity testing\n   ************* Testing Individual Supply Air Path Integrity\n   ************* All Supply Air Paths passed integrity testing\n   ************* Testing Individual Return Air Path Integrity\n   ************* All Return Air Paths passed integrity testing\n   ************* No node connection errors were found.\n   ************* Beginning Simulation\n   ** Warning ** Processing Monthly Tabular Reports: Variable names not valid for this simulation\n   **   ~~~   ** ...use Output:Diagnostics,DisplayExtraWarnings; to show more details on individual variables.\n   ** Warning ** GetInputEconomicsTariff: UtilityCost:Tariff=\"CENTRA\" missing meter\n   **   ~~~   ** Meter referenced is not present due to a lack of equipment that uses that energy source/meter:\"GAS:FACILITY\".\n   ** Warning ** GetInputEconomicsTariff: UtilityCost:Tariff=\"NONEOIL\" missing meter\n   **   ~~~   ** Meter referenced is not present due to a lack of equipment that uses that energy source/meter:\"FUELOIL#2:FACILITY\".\n   ** Warning ** CalcDoe2DXCoil: Coil:Cooling:DX:SingleSpeed \"COIL COOLING DX SINGLE SPEED 7 11KBTU/HR 10.2EER\" - Air-cooled condenser inlet dry-bulb temperature below 0 C. Outdoor dry-bulb temperature = -14.85\n   **   ~~~   **  ... Occurrence info = RUN PERIOD 1, 01/01 10:25 - 10:30\n   **   ~~~   ** ... Operation at low ambient temperatures may require special performance curves.\n   ** Warning ** CalcDoe2DXCoil: Coil:Cooling:DX:SingleSpeed \"COIL COOLING DX SINGLE SPEED 8 11KBTU/HR 10.2EER\" - Air-cooled condenser inlet dry-bulb temperature below 0 C. Outdoor dry-bulb temperature = -14.85\n   **   ~~~   **  ... Occurrence info = RUN PERIOD 1, 01/01 10:25 - 10:30\n   **   ~~~   ** ... Operation at low ambient temperatures may require special performance curves.\n   ** Warning ** CalcDoe2DXCoil: Coil:Cooling:DX:SingleSpeed \"COIL COOLING DX SINGLE SPEED 9 14KBTU/HR 9.4EER\" - Air-cooled condenser inlet dry-bulb temperature below 0 C. Outdoor dry-bulb temperature = -14.23\n   **   ~~~   **  ... Occurrence info = RUN PERIOD 1, 01/01 10:40 - 10:45\n   **   ~~~   ** ... Operation at low ambient temperatures may require special performance curves.\n   ** Warning ** CalcDoe2DXCoil: Coil:Cooling:DX:SingleSpeed \"COIL COOLING DX SINGLE SPEED 15 12KBTU/HR 10.0EER\" - Air-cooled condenser inlet dry-bulb temperature below 0 C. Outdoor dry-bulb temperature = -13.60\n   **   ~~~   **  ... Occurrence info = RUN PERIOD 1, 01/01 10:53 - 11:00\n   **   ~~~   ** ... Operation at low ambient temperatures may require special performance curves.\n   ** Warning ** CalcDoe2DXCoil: Coil:Cooling:DX:SingleSpeed \"COIL COOLING DX SINGLE SPEED 16 12KBTU/HR 10.0EER\" - Air-cooled condenser inlet dry-bulb temperature below 0 C. Outdoor dry-bulb temperature = -13.60\n   **   ~~~   **  ... Occurrence info = RUN PERIOD 1, 01/01 10:53 - 11:00\n   **   ~~~   ** ... Operation at low ambient temperatures may require special performance curves.\n   ** Warning ** CalcDoe2DXCoil: Coil:Cooling:DX:SingleSpeed \"COIL COOLING DX SINGLE SPEED 17 15KBTU/HR 9.4EER\" - Air-cooled condenser inlet dry-bulb temperature below 0 C. Outdoor dry-bulb temperature = -13.60\n   **   ~~~   **  ... Occurrence info = RUN PERIOD 1, 01/01 10:53 - 11:00\n   **   ~~~   ** ... Operation at low ambient temperatures may require special performance curves.\n   ** Warning ** CalcDoe2DXCoil: Coil:Cooling:DX:SingleSpeed \"COIL COOLING DX SINGLE SPEED 18 16KBTU/HR 9.3EER\" - Air-cooled condenser inlet dry-bulb temperature below 0 C. Outdoor dry-bulb temperature = -12.65\n   **   ~~~   **  ... Occurrence info = RUN PERIOD 1, 01/01 11:15 - 11:20\n   **   ~~~   ** ... Operation at low ambient temperatures may require special performance curves.\n   ** Warning ** CalcDoe2DXCoil: Coil:Cooling:DX:SingleSpeed \"COIL COOLING DX SINGLE SPEED 25 19KBTU/HR 9.3EER\" - Air-cooled condenser inlet dry-bulb temperature below 0 C. Outdoor dry-bulb temperature = -12.65\n   **   ~~~   **  ... Occurrence info = RUN PERIOD 1, 01/01 11:15 - 11:20\n   **   ~~~   ** ... Operation at low ambient temperatures may require special performance curves.\n   ** Warning ** CalcDoe2DXCoil: Coil:Cooling:DX:SingleSpeed \"COIL COOLING DX SINGLE SPEED 26 21KBTU/HR 9.3EER\" - Air-cooled condenser inlet dry-bulb temperature below 0 C. Outdoor dry-bulb temperature = -12.65\n   **   ~~~   **  ... Occurrence info = RUN PERIOD 1, 01/01 11:15 - 11:20\n   **   ~~~   ** ... Operation at low ambient temperatures may require special performance curves.\n   ** Warning ** CalcDoe2DXCoil: Coil:Cooling:DX:SingleSpeed \"COIL COOLING DX SINGLE SPEED 24 18KBTU/HR 9.3EER\" - Air-cooled condenser inlet dry-bulb temperature below 0 C. Outdoor dry-bulb temperature = -12.65\n   **   ~~~   **  ... Occurrence info = RUN PERIOD 1, 01/01 11:20 - 11:25\n   **   ~~~   ** ... Operation at low ambient temperatures may require special performance curves.\n   ** Warning ** CalcDoe2DXCoil: Coil:Cooling:DX:SingleSpeed \"COIL COOLING DX SINGLE SPEED 27 22KBTU/HR 9.3EER\" - Air-cooled condenser inlet dry-bulb temperature below 0 C. Outdoor dry-bulb temperature = -12.18\n   **   ~~~   **  ... Occurrence info = RUN PERIOD 1, 01/01 11:40 - 11:45\n   **   ~~~   ** ... Operation at low ambient temperatures may require special performance curves.\n   ** Warning ** CalcDoe2DXCoil: Coil:Cooling:DX:SingleSpeed \"COIL COOLING DX SINGLE SPEED 14 8KBTU/HR 10.9EER\" - Air-cooled condenser inlet dry-bulb temperature below 0 C. Outdoor dry-bulb temperature = -13.60\n   **   ~~~   **  ... Occurrence info = RUN PERIOD 1, 01/02 15:15 - 15:30\n   **   ~~~   ** ... Operation at low ambient temperatures may require special performance curves.\n   ** Warning ** CalcDoe2DXCoil: Coil:Cooling:DX:SingleSpeed \"COIL COOLING DX SINGLE SPEED 6 7KBTU/HR 11.0EER\" - Air-cooled condenser inlet dry-bulb temperature below 0 C. Outdoor dry-bulb temperature = -18.80\n   **   ~~~   **  ... Occurrence info = RUN PERIOD 1, 02/09 14:45 - 15:00\n   **   ~~~   ** ... Operation at low ambient temperatures may require special performance curves.\n   ** Warning ** CalcDoe2DXCoil: Coil:Cooling:DX:SingleSpeed \"COIL COOLING DX SINGLE SPEED 5 13KBTU/HR 9.7EER\" - Air-cooled condenser inlet dry-bulb temperature below 0 C. Outdoor dry-bulb temperature = -16.93\n   **   ~~~   **  ... Occurrence info = RUN PERIOD 1, 02/18 16:30 - 16:45\n   **   ~~~   ** ... Operation at low ambient temperatures may require special performance curves.\n   ** Warning ** CalcDoe2DXCoil: Coil:Cooling:DX:SingleSpeed \"COIL COOLING DX SINGLE SPEED 13 15KBTU/HR 9.3EER\" - Air-cooled condenser inlet dry-bulb temperature below 0 C. Outdoor dry-bulb temperature = -11.90\n   **   ~~~   **  ... Occurrence info = RUN PERIOD 1, 02/27 16:30 - 16:45\n   **   ~~~   ** ... Operation at low ambient temperatures may require special performance curves.\n   ** Warning ** CalcDoe2DXCoil: Coil:Cooling:DX:SingleSpeed \"COIL COOLING DX SINGLE SPEED 23 13KBTU/HR 9.7EER\" - Air-cooled condenser inlet dry-bulb temperature below 0 C. Outdoor dry-bulb temperature = -11.80\n   **   ~~~   **  ... Occurrence info = RUN PERIOD 1, 03/03 15:15 - 15:22\n   **   ~~~   ** ... Operation at low ambient temperatures may require special performance curves.\n   ** Warning ** CalcDoe2DXCoil: Coil:Cooling:DX:SingleSpeed \"COIL COOLING DX SINGLE SPEED 22 19KBTU/HR 9.3EER\" - Air-cooled condenser inlet dry-bulb temperature below 0 C. Outdoor dry-bulb temperature = -11.80\n   **   ~~~   **  ... Occurrence info = RUN PERIOD 1, 03/03 15:45 - 15:52\n   **   ~~~   ** ... Operation at low ambient temperatures may require special performance curves.\n   ** Warning ** CalcDoe2DXCoil: Coil:Cooling:DX:SingleSpeed \"COIL COOLING DX SINGLE SPEED 10 7KBTU/HR 11.0EER\" - Air-cooled condenser inlet dry-bulb temperature below 0 C. Outdoor dry-bulb temperature = -7.60\n   **   ~~~   **  ... Occurrence info = RUN PERIOD 1, 03/07 20:45 - 21:00\n   **   ~~~   ** ... Operation at low ambient temperatures may require special performance curves.\n   ** Warning ** CalcDoe2DXCoil: Coil:Cooling:DX:SingleSpeed \"COIL COOLING DX SINGLE SPEED 11 7KBTU/HR 11.0EER\" - Air-cooled condenser inlet dry-bulb temperature below 0 C. Outdoor dry-bulb temperature = -1.95\n   **   ~~~   **  ... Occurrence info = RUN PERIOD 1, 03/08 19:00 - 19:15\n   **   ~~~   ** ... Operation at low ambient temperatures may require special performance curves.\n   ** Warning ** CalcDoe2DXCoil: Coil:Cooling:DX:SingleSpeed \"COIL COOLING DX SINGLE SPEED 2 6KBTU/HR 11.0EER\" - Air-cooled condenser inlet dry-bulb temperature below 0 C. Outdoor dry-bulb temperature = -0.35\n   **   ~~~   **  ... Occurrence info = RUN PERIOD 1, 03/17 18:30 - 18:45\n   **   ~~~   ** ... Operation at low ambient temperatures may require special performance curves.\n   ** Warning ** CalcDoe2DXCoil: Coil:Cooling:DX:SingleSpeed \"COIL COOLING DX SINGLE SPEED 12 14KBTU/HR 9.5EER\" - Air-cooled condenser inlet dry-bulb temperature below 0 C. Outdoor dry-bulb temperature = -0.35\n   **   ~~~   **  ... Occurrence info = RUN PERIOD 1, 03/17 18:30 - 18:45\n   **   ~~~   ** ... Operation at low ambient temperatures may require special performance curves.\n   ** Warning ** CalcDoe2DXCoil: Coil:Cooling:DX:SingleSpeed \"COIL COOLING DX SINGLE SPEED 3 6KBTU/HR 11.0EER\" - Air-cooled condenser inlet dry-bulb temperature below 0 C. Outdoor dry-bulb temperature = -1.40\n   **   ~~~   **  ... Occurrence info = RUN PERIOD 1, 03/17 19:15 - 19:30\n   **   ~~~   ** ... Operation at low ambient temperatures may require special performance curves.\n   ** Warning ** CalcDoe2DXCoil: Coil:Cooling:DX:SingleSpeed \"COIL COOLING DX SINGLE SPEED 19 12KBTU/HR 10.0EER\" - Air-cooled condenser inlet dry-bulb temperature below 0 C. Outdoor dry-bulb temperature = -1.48\n   **   ~~~   **  ... Occurrence info = RUN PERIOD 1, 03/18 15:00 - 15:15\n   **   ~~~   ** ... Operation at low ambient temperatures may require special performance curves.\n   ** Warning ** CalcDoe2DXCoil: Coil:Cooling:DX:SingleSpeed \"COIL COOLING DX SINGLE SPEED 20 12KBTU/HR 10.0EER\" - Air-cooled condenser inlet dry-bulb temperature below 0 C. Outdoor dry-bulb temperature = -1.48\n   **   ~~~   **  ... Occurrence info = RUN PERIOD 1, 03/18 15:00 - 15:15\n   **   ~~~   ** ... Operation at low ambient temperatures may require special performance curves.\n   ** Warning ** CalcDoe2DXCoil: Coil:Cooling:DX:SingleSpeed \"COIL COOLING DX SINGLE SPEED 21 17KBTU/HR 9.3EER\" - Air-cooled condenser inlet dry-bulb temperature below 0 C. Outdoor dry-bulb temperature = -1.35\n   **   ~~~   **  ... Occurrence info = RUN PERIOD 1, 03/18 15:15 - 15:30\n   **   ~~~   ** ... Operation at low ambient temperatures may require special performance curves.\n   ** Warning ** CalcDoe2DXCoil: Coil:Cooling:DX:SingleSpeed \"COIL COOLING DX SINGLE SPEED 4 13KBTU/HR 9.7EER\" - Air-cooled condenser inlet dry-bulb temperature below 0 C. Outdoor dry-bulb temperature = -3.20\n   **   ~~~   **  ... Occurrence info = RUN PERIOD 1, 03/30 08:25 - 08:30\n   **   ~~~   ** ... Operation at low ambient temperatures may require special performance curves.\n   ** Warning ** The resource referenced by LifeCycleCost:UsePriceEscalation= \"U.S. AVG  COMMERCIAL-DISTILLATE OIL\" has no energy cost. \n   **   ~~~   ** ... It is likely that the wrong resource is used. The resource should match the meter used in Utility:Tariff.\n   ** Warning ** The resource referenced by LifeCycleCost:UsePriceEscalation= \"U.S. AVG  COMMERCIAL-RESIDUAL OIL\" has no energy cost. \n   **   ~~~   ** ... It is likely that the wrong resource is used. The resource should match the meter used in Utility:Tariff.\n   ** Warning ** The resource referenced by LifeCycleCost:UsePriceEscalation= \"U.S. AVG  COMMERCIAL-NATURAL GAS\" has no energy cost. \n   **   ~~~   ** ... It is likely that the wrong resource is used. The resource should match the meter used in Utility:Tariff.\n   ** Warning ** The resource referenced by LifeCycleCost:UsePriceEscalation= \"U.S. AVG  COMMERCIAL-COAL\" has no energy cost. \n   **   ~~~   ** ... It is likely that the wrong resource is used. The resource should match the meter used in Utility:Tariff.\n   ************* Simulation Error Summary *************\n   ************* There are 9 unused schedules in input.\n   ************* There are 9 unused week schedules in input.\n   ************* There are 17 unused day schedules in input.\n   ************* Use Output:Diagnostics,DisplayUnusedSchedules; to see them.\n   *************\n   ************* ===== Recurring Error Summary =====\n   ************* The following recurring error messages occurred.\n   *************\n   *************  ** Warning ** CalcDoe2DXCoil: Coil:Cooling:DX:SingleSpeed=\"COIL COOLING DX SINGLE SPEED 7 11KBTU/HR 10.2EER\" - Low condenser dry-bulb temperature error continues...\n   *************  **   ~~~   **   This error occurred 4292 total times;\n   *************  **   ~~~   **   during Warmup 0 times;\n   *************  **   ~~~   **   during Sizing 0 times.\n   *************  **   ~~~   **   Max=-2.775558E-017 [C]  Min=-24.925 [C]\n   *************\n   *************  ** Warning ** CalcDoe2DXCoil: Coil:Cooling:DX:SingleSpeed=\"COIL COOLING DX SINGLE SPEED 8 11KBTU/HR 10.2EER\" - Low condenser dry-bulb temperature error continues...\n   *************  **   ~~~   **   This error occurred 4160 total times;\n   *************  **   ~~~   **   during Warmup 0 times;\n   *************  **   ~~~   **   during Sizing 0 times.\n   *************  **   ~~~   **   Max=-2.775558E-017 [C]  Min=-24.925 [C]\n   *************\n   *************  ** Warning ** CalcDoe2DXCoil: Coil:Cooling:DX:SingleSpeed=\"COIL COOLING DX SINGLE SPEED 9 14KBTU/HR 9.4EER\" - Low condenser dry-bulb temperature error continues...\n   *************  **   ~~~   **   This error occurred 3223 total times;\n   *************  **   ~~~   **   during Warmup 0 times;\n   *************  **   ~~~   **   during Sizing 0 times.\n   *************  **   ~~~   **   Max=-2.500000E-002 [C]  Min=-24.925 [C]\n   *************\n   *************  ** Warning ** CalcDoe2DXCoil: Coil:Cooling:DX:SingleSpeed=\"COIL COOLING DX SINGLE SPEED 15 12KBTU/HR 10.0EER\" - Low condenser dry-bulb temperature error continues...\n   *************  **   ~~~   **   This error occurred 5749 total times;\n   *************  **   ~~~   **   during Warmup 0 times;\n   *************  **   ~~~   **   during Sizing 0 times.\n   *************  **   ~~~   **   Max=-2.775558E-017 [C]  Min=-24.925 [C]\n   *************\n   *************  ** Warning ** CalcDoe2DXCoil: Coil:Cooling:DX:SingleSpeed=\"COIL COOLING DX SINGLE SPEED 16 12KBTU/HR 10.0EER\" - Low condenser dry-bulb temperature error continues...\n   *************  **   ~~~   **   This error occurred 5720 total times;\n   *************  **   ~~~   **   during Warmup 0 times;\n   *************  **   ~~~   **   during Sizing 0 times.\n   *************  **   ~~~   **   Max=-2.775558E-017 [C]  Min=-24.925 [C]\n   *************\n   *************  ** Warning ** CalcDoe2DXCoil: Coil:Cooling:DX:SingleSpeed=\"COIL COOLING DX SINGLE SPEED 17 15KBTU/HR 9.4EER\" - Low condenser dry-bulb temperature error continues...\n   *************  **   ~~~   **   This error occurred 3806 total times;\n   *************  **   ~~~   **   during Warmup 0 times;\n   *************  **   ~~~   **   during Sizing 0 times.\n   *************  **   ~~~   **   Max=-2.775558E-017 [C]  Min=-24.925 [C]\n   *************\n   *************  ** Warning ** CalcDoe2DXCoil: Coil:Cooling:DX:SingleSpeed=\"COIL COOLING DX SINGLE SPEED 18 16KBTU/HR 9.3EER\" - Low condenser dry-bulb temperature error continues...\n   *************  **   ~~~   **   This error occurred 3787 total times;\n   *************  **   ~~~   **   during Warmup 0 times;\n   *************  **   ~~~   **   during Sizing 0 times.\n   *************  **   ~~~   **   Max=-2.775558E-017 [C]  Min=-24.925 [C]\n   *************\n   *************  ** Warning ** CalcDoe2DXCoil: Coil:Cooling:DX:SingleSpeed=\"COIL COOLING DX SINGLE SPEED 25 19KBTU/HR 9.3EER\" - Low condenser dry-bulb temperature error continues...\n   *************  **   ~~~   **   This error occurred 1887 total times;\n   *************  **   ~~~   **   during Warmup 0 times;\n   *************  **   ~~~   **   during Sizing 0 times.\n   *************  **   ~~~   **   Max=-2.500000E-002 [C]  Min=-24.9 [C]\n   *************\n   *************  ** Warning ** CalcDoe2DXCoil: Coil:Cooling:DX:SingleSpeed=\"COIL COOLING DX SINGLE SPEED 26 21KBTU/HR 9.3EER\" - Low condenser dry-bulb temperature error continues...\n   *************  **   ~~~   **   This error occurred 1780 total times;\n   *************  **   ~~~   **   during Warmup 0 times;\n   *************  **   ~~~   **   during Sizing 0 times.\n   *************  **   ~~~   **   Max=-2.500000E-002 [C]  Min=-24.9 [C]\n   *************\n   *************  ** Warning ** CalcDoe2DXCoil: Coil:Cooling:DX:SingleSpeed=\"COIL COOLING DX SINGLE SPEED 24 18KBTU/HR 9.3EER\" - Low condenser dry-bulb temperature error continues...\n   *************  **   ~~~   **   This error occurred 1867 total times;\n   *************  **   ~~~   **   during Warmup 0 times;\n   *************  **   ~~~   **   during Sizing 0 times.\n   *************  **   ~~~   **   Max=-2.500000E-002 [C]  Min=-24.9 [C]\n   *************\n   *************  ** Warning ** CalcDoe2DXCoil: Coil:Cooling:DX:SingleSpeed=\"COIL COOLING DX SINGLE SPEED 27 22KBTU/HR 9.3EER\" - Low condenser dry-bulb temperature error continues...\n   *************  **   ~~~   **   This error occurred 1710 total times;\n   *************  **   ~~~   **   during Warmup 0 times;\n   *************  **   ~~~   **   during Sizing 0 times.\n   *************  **   ~~~   **   Max=-2.500000E-002 [C]  Min=-24.9 [C]\n   *************\n   *************  ** Warning ** CalcDoe2DXCoil: Coil:Cooling:DX:SingleSpeed=\"COIL COOLING DX SINGLE SPEED 14 8KBTU/HR 10.9EER\" - Low condenser dry-bulb temperature error continues...\n   *************  **   ~~~   **   This error occurred 1675 total times;\n   *************  **   ~~~   **   during Warmup 0 times;\n   *************  **   ~~~   **   during Sizing 0 times.\n   *************  **   ~~~   **   Max=-2.500000E-002 [C]  Min=-24.6 [C]\n   *************\n   *************  ** Warning ** CalcDoe2DXCoil: Coil:Cooling:DX:SingleSpeed=\"COIL COOLING DX SINGLE SPEED 6 7KBTU/HR 11.0EER\" - Low condenser dry-bulb temperature error continues...\n   *************  **   ~~~   **   This error occurred 670 total times;\n   *************  **   ~~~   **   during Warmup 0 times;\n   *************  **   ~~~   **   during Sizing 0 times.\n   *************  **   ~~~   **   Max=-2.500000E-002 [C]  Min=-21.325 [C]\n   *************\n   *************  ** Warning ** CalcDoe2DXCoil: Coil:Cooling:DX:SingleSpeed=\"COIL COOLING DX SINGLE SPEED 5 13KBTU/HR 9.7EER\" - Low condenser dry-bulb temperature error continues...\n   *************  **   ~~~   **   This error occurred 361 total times;\n   *************  **   ~~~   **   during Warmup 0 times;\n   *************  **   ~~~   **   during Sizing 0 times.\n   *************  **   ~~~   **   Max=-2.500000E-002 [C]  Min=-20.875 [C]\n   *************\n   *************  ** Warning ** CalcDoe2DXCoil: Coil:Cooling:DX:SingleSpeed=\"COIL COOLING DX SINGLE SPEED 13 15KBTU/HR 9.3EER\" - Low condenser dry-bulb temperature error continues...\n   *************  **   ~~~   **   This error occurred 638 total times;\n   *************  **   ~~~   **   during Warmup 0 times;\n   *************  **   ~~~   **   during Sizing 0 times.\n   *************  **   ~~~   **   Max=-2.500000E-002 [C]  Min=-17. [C]\n   *************\n   *************  ** Warning ** CalcDoe2DXCoil: Coil:Cooling:DX:SingleSpeed=\"COIL COOLING DX SINGLE SPEED 23 13KBTU/HR 9.7EER\" - Low condenser dry-bulb temperature error continues...\n   *************  **   ~~~   **   This error occurred 296 total times;\n   *************  **   ~~~   **   during Warmup 0 times;\n   *************  **   ~~~   **   during Sizing 0 times.\n   *************  **   ~~~   **   Max=-2.500000E-002 [C]  Min=-13.4 [C]\n   *************\n   *************  ** Warning ** CalcDoe2DXCoil: Coil:Cooling:DX:SingleSpeed=\"COIL COOLING DX SINGLE SPEED 22 19KBTU/HR 9.3EER\" - Low condenser dry-bulb temperature error continues...\n   *************  **   ~~~   **   This error occurred 159 total times;\n   *************  **   ~~~   **   during Warmup 0 times;\n   *************  **   ~~~   **   during Sizing 0 times.\n   *************  **   ~~~   **   Max=-2.500000E-002 [C]  Min=-14. [C]\n   *************\n   *************  ** Warning ** CalcDoe2DXCoil: Coil:Cooling:DX:SingleSpeed=\"COIL COOLING DX SINGLE SPEED 10 7KBTU/HR 11.0EER\" - Low condenser dry-bulb temperature error continues...\n   *************  **   ~~~   **   This error occurred 519 total times;\n   *************  **   ~~~   **   during Warmup 0 times;\n   *************  **   ~~~   **   during Sizing 0 times.\n   *************  **   ~~~   **   Max=-2.500000E-002 [C]  Min=-9.4 [C]\n   *************\n   *************  ** Warning ** CalcDoe2DXCoil: Coil:Cooling:DX:SingleSpeed=\"COIL COOLING DX SINGLE SPEED 11 7KBTU/HR 11.0EER\" - Low condenser dry-bulb temperature error continues...\n   *************  **   ~~~   **   This error occurred 450 total times;\n   *************  **   ~~~   **   during Warmup 0 times;\n   *************  **   ~~~   **   during Sizing 0 times.\n   *************  **   ~~~   **   Max=-2.500000E-002 [C]  Min=-9.1 [C]\n   *************\n   *************  ** Warning ** CalcDoe2DXCoil: Coil:Cooling:DX:SingleSpeed=\"COIL COOLING DX SINGLE SPEED 2 6KBTU/HR 11.0EER\" - Low condenser dry-bulb temperature error continues...\n   *************  **   ~~~   **   This error occurred 131 total times;\n   *************  **   ~~~   **   during Warmup 0 times;\n   *************  **   ~~~   **   during Sizing 0 times.\n   *************  **   ~~~   **   Max=-2.500000E-002 [C]  Min=-6.2 [C]\n   *************\n   *************  ** Warning ** CalcDoe2DXCoil: Coil:Cooling:DX:SingleSpeed=\"COIL COOLING DX SINGLE SPEED 12 14KBTU/HR 9.5EER\" - Low condenser dry-bulb temperature error continues...\n   *************  **   ~~~   **   This error occurred 188 total times;\n   *************  **   ~~~   **   during Warmup 0 times;\n   *************  **   ~~~   **   during Sizing 0 times.\n   *************  **   ~~~   **   Max=-2.500000E-002 [C]  Min=-5.6 [C]\n   *************\n   *************  ** Warning ** CalcDoe2DXCoil: Coil:Cooling:DX:SingleSpeed=\"COIL COOLING DX SINGLE SPEED 3 6KBTU/HR 11.0EER\" - Low condenser dry-bulb temperature error continues...\n   *************  **   ~~~   **   This error occurred 83 total times;\n   *************  **   ~~~   **   during Warmup 0 times;\n   *************  **   ~~~   **   during Sizing 0 times.\n   *************  **   ~~~   **   Max=-2.500000E-002 [C]  Min=-5.8 [C]\n   *************\n   *************  ** Warning ** CalcDoe2DXCoil: Coil:Cooling:DX:SingleSpeed=\"COIL COOLING DX SINGLE SPEED 19 12KBTU/HR 10.0EER\" - Low condenser dry-bulb temperature error continues...\n   *************  **   ~~~   **   This error occurred 29 total times;\n   *************  **   ~~~   **   during Warmup 0 times;\n   *************  **   ~~~   **   during Sizing 0 times.\n   *************  **   ~~~   **   Max=-2.500000E-002 [C]  Min=-2.925 [C]\n   *************\n   *************  ** Warning ** CalcDoe2DXCoil: Coil:Cooling:DX:SingleSpeed=\"COIL COOLING DX SINGLE SPEED 20 12KBTU/HR 10.0EER\" - Low condenser dry-bulb temperature error continues...\n   *************  **   ~~~   **   This error occurred 21 total times;\n   *************  **   ~~~   **   during Warmup 0 times;\n   *************  **   ~~~   **   during Sizing 0 times.\n   *************  **   ~~~   **   Max=-0.725 [C]  Min=-2.8 [C]\n   *************\n   *************  ** Warning ** CalcDoe2DXCoil: Coil:Cooling:DX:SingleSpeed=\"COIL COOLING DX SINGLE SPEED 21 17KBTU/HR 9.3EER\" - Low condenser dry-bulb temperature error continues...\n   *************  **   ~~~   **   This error occurred 101 total times;\n   *************  **   ~~~   **   during Warmup 0 times;\n   *************  **   ~~~   **   during Sizing 0 times.\n   *************  **   ~~~   **   Max=-2.500000E-002 [C]  Min=-5.1 [C]\n   *************\n   *************  ** Warning ** CalcDoe2DXCoil: Coil:Cooling:DX:SingleSpeed=\"COIL COOLING DX SINGLE SPEED 4 13KBTU/HR 9.7EER\" - Low condenser dry-bulb temperature error continues...\n   *************  **   ~~~   **   This error occurred 120 total times;\n   *************  **   ~~~   **   during Warmup 0 times;\n   *************  **   ~~~   **   during Sizing 0 times.\n   *************  **   ~~~   **   Max=-2.500000E-002 [C]  Min=-5.8 [C]\n   *************\n   *************\n   ************* ===== Final Error Summary =====\n   ************* The following error categories occurred.  Consider correcting or noting.\n   ************* Nominally Unused Constructions\n   ************* ..The nominally unused constructions warning is provided to alert you to potential conditions that can cause\n   ************* ..extra time during simulation. Each construction is calculated by the algorithm indicated in the HeatBalanceAlgorithm\n   ************* ..object. You may remove the constructions indicated (when you use the DisplayExtraWarnings option).\n   *************\n   ************* EnergyPlus Warmup Error Summary. During Warmup: 0 Warning; 0 Severe Errors.\n   ************* EnergyPlus Sizing Error Summary. During Sizing: 162 Warning; 0 Severe Errors.\n   ************* EnergyPlus Completed Successfully-- 43625 Warning; 0 Severe Errors; Elapsed Time=00hr 01min 26.46sec\n",
   "file_format_version" : "0.0.1",
   "file_paths" : [ "../weather", "../seeds", "../seed" ],
   "hash" : "6FFD2B28",
   "measure_paths" : [ "../measures" ],
   "name" : "DOE Autogenerated 20",
   "osa_id" : "68c8b576-a9a1-447a-a2db-fd41b0db3a06",
   "osd_id" : "f861f980-5b0c-4907-a49a-3b98d20f8125",
   "run_directory" : "./run",
   "seed_file" : "dummy.osm",
   "started_at" : "20190517T152149Z",
   "steps" : [
      {
         "arguments" : {
            "building_type" : "MidriseApartment",
            "epw_file" : "CAN_MB_Winnipeg-Richardson.Intl.AP.718520_CWEC2016.epw",
            "new_auto_zoner" : true,
            "template" : "NECB2017"
         },
         "description" : "This measure creates an NECB prototype building from scratch and uses it as the base for an analysis.",
         "measure_dir_name" : "btap_create_necb_prototype_building",
         "name" : "btap_create_necb_prototype_building",
         "result" : {
            "completed_at" : "20190517T152346Z",
            "measure_class_name" : "BTAPCreateNECBPrototypeBuilding",
            "measure_display_name" : "BTAPCreateNECBPrototypeBuilding",
            "measure_name" : "btap_create_necb_prototype_building",
            "measure_taxonomy" : "Whole Building.Space Types",
            "measure_type" : "ModelMeasure",
            "measure_uid" : "3e9acd53-8602-4749-a655-7cbbe48e8b30",
            "measure_version_id" : "fce385ec-90b4-4b1d-9950-ad7bead32503",
            "measure_version_modified" : "20190401T145206Z",
            "measure_xml_checksum" : "2C38F48B",
            "started_at" : "20190517T152149Z",
            "stderr" : "",
            "stdout" : "[OpenStudio.Measure] <0> OSArgumentVector is deprecated, use OpenStudio::Measure::OSArgumentVector instead.\n[openstudio.EpwFile] <0> Successive data points (2013-Jan-31 to 2011-Feb-01, ending on line 753) are greater than 1 day apart in EPW file '/usr/local/lib/ruby/gems/2.2.0/bundler/gems/openstudio-standards-f0e9e7df79cf/data/weather/CAN_MB_Winnipeg-Richardson.Intl.AP.718520_CWEC2016.epw'. Data will be treated as typical (TMY)\n[openstudio.setFileExtension] <0> Path p, '/usr/local/lib/ruby/gems/2.2.0/bundler/gems/openstudio-standards-f0e9e7df79cf/data/weather/CAN_MB_Winnipeg-Richardson.Intl.AP.718520_CWEC2016.ddy', has an unexpected file extension. Was expecting 'idf'.\n[openstudio.setFileExtension] <0> Path p, '/usr/local/lib/ruby/gems/2.2.0/bundler/gems/openstudio-standards-f0e9e7df79cf/data/weather/CAN_MB_Winnipeg-Richardson.Intl.AP.718520_CWEC2016.ddy', has an unexpected file extension. Was expecting 'idf'.\n[openstudio.EpwFile] <0> Successive data points (2013-Jan-31 to 2011-Feb-01, ending on line 753) are greater than 1 day apart in EPW file '/usr/local/lib/ruby/gems/2.2.0/bundler/gems/openstudio-standards-f0e9e7df79cf/data/weather/CAN_MB_Winnipeg-Richardson.Intl.AP.718520_CWEC2016.epw'. Data will be treated as typical (TMY)\n[openstudio.setFileExtension] <0> Path p, '/usr/local/lib/ruby/gems/2.2.0/bundler/gems/openstudio-standards-f0e9e7df79cf/data/weather/CAN_MB_Winnipeg-Richardson.Intl.AP.718520_CWEC2016.ddy', has an unexpected file extension. Was expecting 'idf'.\n[openstudio.weather.Model] <0> Could not find ground temperatures; will use generic temperatures, which will skew results.\n[openstudio.EpwFile] <0> Successive data points (2013-Jan-31 to 2011-Feb-01, ending on line 753) are greater than 1 day apart in EPW file '/usr/local/lib/ruby/gems/2.2.0/bundler/gems/openstudio-standards-f0e9e7df79cf/data/weather/CAN_MB_Winnipeg-Richardson.Intl.AP.718520_CWEC2016.epw'. Data will be treated as typical (TMY)\n[openstudio.setFileExtension] <0> Path p, '/usr/local/lib/ruby/gems/2.2.0/bundler/gems/openstudio-standards-f0e9e7df79cf/data/weather/CAN_MB_Winnipeg-Richardson.Intl.AP.718520_CWEC2016.ddy', has an unexpected file extension. Was expecting 'idf'.\n[openstudio.setFileExtension] <0> Path p, '/usr/local/lib/ruby/gems/2.2.0/bundler/gems/openstudio-standards-f0e9e7df79cf/data/weather/CAN_MB_Winnipeg-Richardson.Intl.AP.718520_CWEC2016.ddy', has an unexpected file extension. Was expecting 'idf'.\n[openstudio.EpwFile] <0> Successive data points (2013-Jan-31 to 2011-Feb-01, ending on line 753) are greater than 1 day apart in EPW file '/usr/local/lib/ruby/gems/2.2.0/bundler/gems/openstudio-standards-f0e9e7df79cf/data/weather/CAN_MB_Winnipeg-Richardson.Intl.AP.718520_CWEC2016.epw'. Data will be treated as typical (TMY)\n[openstudio.setFileExtension] <0> Path p, '/usr/local/lib/ruby/gems/2.2.0/bundler/gems/openstudio-standards-f0e9e7df79cf/data/weather/CAN_MB_Winnipeg-Richardson.Intl.AP.718520_CWEC2016.ddy', has an unexpected file extension. Was expecting 'idf'.\n[openstudio.setFileExtension] <0> Path p, '/usr/local/lib/ruby/gems/2.2.0/bundler/gems/openstudio-standards-f0e9e7df79cf/data/weather/CAN_MB_Winnipeg-Richardson.Intl.AP.718520_CWEC2016.ddy', has an unexpected file extension. Was expecting 'idf'.\n[utilities.idf.WorkspaceObject] <0> Object of type 'Schedule:Constant' and named 'Always Off Discrete', points to an object named OnOff 1 from field 1, but that object cannot be located.\n[utilities.idf.WorkspaceObject] <0> Object of type 'Schedule:Constant' and named 'Always On Continuous', points to an object named Fractional 1 from field 1, but that object cannot be located.\n[openstudio.EpwFile] <0> Successive data points (2013-Jan-31 to 2011-Feb-01, ending on line 753) are greater than 1 day apart in EPW file '/usr/local/lib/ruby/gems/2.2.0/bundler/gems/openstudio-standards-f0e9e7df79cf/data/weather/CAN_MB_Winnipeg-Richardson.Intl.AP.718520_CWEC2016.epw'. Data will be treated as typical (TMY)\n[openstudio.setFileExtension] <0> Path p, '/usr/local/lib/ruby/gems/2.2.0/bundler/gems/openstudio-standards-f0e9e7df79cf/data/weather/CAN_MB_Winnipeg-Richardson.Intl.AP.718520_CWEC2016.ddy', has an unexpected file extension. Was expecting 'idf'.\n[openstudio.setFileExtension] <0> Path p, '/usr/local/lib/ruby/gems/2.2.0/bundler/gems/openstudio-standards-f0e9e7df79cf/data/weather/CAN_MB_Winnipeg-Richardson.Intl.AP.718520_CWEC2016.ddy', has an unexpected file extension. Was expecting 'idf'.\n[openstudio.EpwFile] <0> Successive data points (2013-Jan-31 to 2011-Feb-01, ending on line 753) are greater than 1 day apart in EPW file '/usr/local/lib/ruby/gems/2.2.0/bundler/gems/openstudio-standards-f0e9e7df79cf/data/weather/CAN_MB_Winnipeg-Richardson.Intl.AP.718520_CWEC2016.epw'. Data will be treated as typical (TMY)\n[openstudio.setFileExtension] <0> Path p, '/usr/local/lib/ruby/gems/2.2.0/bundler/gems/openstudio-standards-f0e9e7df79cf/data/weather/CAN_MB_Winnipeg-Richardson.Intl.AP.718520_CWEC2016.ddy', has an unexpected file extension. Was expecting 'idf'.\n[openstudio.setFileExtension] <0> Path p, '/usr/local/lib/ruby/gems/2.2.0/bundler/gems/openstudio-standards-f0e9e7df79cf/data/weather/CAN_MB_Winnipeg-Richardson.Intl.AP.718520_CWEC2016.ddy', has an unexpected file extension. Was expecting 'idf'.\n[utilities.idf.WorkspaceObject] <0> Object of type 'Schedule:Constant' and named 'Always Off Discrete', points to an object named OnOff 1 from field 1, but that object cannot be located.\n[utilities.idf.WorkspaceObject] <0> Object of type 'Schedule:Constant' and named 'Always On Continuous', points to an object named Fractional 1 from field 1, but that object cannot be located.\n[openstudio.standards.Fan] <0> For Fan Constant Volume 1, there is no greater nominal HP.  Use the efficiency of the largest motor category.\n[openstudio.standards.Fan] <0> For Fan Constant Volume 28, there is no greater nominal HP.  Use the efficiency of the largest motor category.\n[openstudio.EpwFile] <0> Successive data points (2013-Jan-31 to 2011-Feb-01, ending on line 753) are greater than 1 day apart in EPW file '/usr/local/lib/ruby/gems/2.2.0/bundler/gems/openstudio-standards-f0e9e7df79cf/data/weather/CAN_MB_Winnipeg-Richardson.Intl.AP.718520_CWEC2016.epw'. Data will be treated as typical (TMY)\n[openstudio.setFileExtension] <0> Path p, '/usr/local/lib/ruby/gems/2.2.0/bundler/gems/openstudio-standards-f0e9e7df79cf/data/weather/CAN_MB_Winnipeg-Richardson.Intl.AP.718520_CWEC2016.ddy', has an unexpected file extension. Was expecting 'idf'.\n[openstudio.setFileExtension] <0> Path p, '/usr/local/lib/ruby/gems/2.2.0/bundler/gems/openstudio-standards-f0e9e7df79cf/data/weather/CAN_MB_Winnipeg-Richardson.Intl.AP.718520_CWEC2016.ddy', has an unexpected file extension. Was expecting 'idf'.\n[openstudio.EpwFile] <0> Successive data points (2013-Jan-31 to 2011-Feb-01, ending on line 753) are greater than 1 day apart in EPW file '/usr/local/lib/ruby/gems/2.2.0/bundler/gems/openstudio-standards-f0e9e7df79cf/data/weather/CAN_MB_Winnipeg-Richardson.Intl.AP.718520_CWEC2016.epw'. Data will be treated as typical (TMY)\n[openstudio.setFileExtension] <0> Path p, '/usr/local/lib/ruby/gems/2.2.0/bundler/gems/openstudio-standards-f0e9e7df79cf/data/weather/CAN_MB_Winnipeg-Richardson.Intl.AP.718520_CWEC2016.ddy', has an unexpected file extension. Was expecting 'idf'.\n[openstudio.setFileExtension] <0> Path p, '/usr/local/lib/ruby/gems/2.2.0/bundler/gems/openstudio-standards-f0e9e7df79cf/data/weather/CAN_MB_Winnipeg-Richardson.Intl.AP.718520_CWEC2016.ddy', has an unexpected file extension. Was expecting 'idf'.\n[openstudio.standards.Fan] <0> For Fan Constant Volume 1, there is no greater nominal HP.  Use the efficiency of the largest motor category.\n[openstudio.standards.Fan] <0> For Fan Constant Volume 28, there is no greater nominal HP.  Use the efficiency of the largest motor category.\n[utilities.idf.WorkspaceObject] <0> Object of type 'Schedule:Constant' and named 'Always Off Discrete', points to an object named OnOff 1 from field 1, but that object cannot be located.\n[utilities.idf.WorkspaceObject] <0> Object of type 'Schedule:Constant' and named 'Always On Continuous', points to an object named Fractional 1 from field 1, but that object cannot be located.\n",
            "step_errors" : [],
            "step_files" : [],
            "step_info" : [
               "Loaded space type map from model",
               "Intersection of 'm GFloor NWA' with 'g Ceilin NWA' results in (m GFloor NWA), (g Ceilin NWA),",
               "Intersection of 'm GFloor S1A' with 'g Ceilin S1A' results in (m GFloor S1A), (g Ceilin S1A),",
               "Intersection of 'g Ceilin N2A' with 'm GFloor N2A' results in (g Ceilin N2A), (m GFloor N2A),",
               "Intersection of 'm GFloor SEA' with 'g Ceilin SEA' results in (m GFloor SEA), (g Ceilin SEA),",
               "Intersection of 'm GFloor S2A' with 'g Ceilin S2A' results in (m GFloor S2A), (g Ceilin S2A),",
               "Intersection of 'm GFloor N2A' with 'g Ceilin N2A' results in (m GFloor N2A), (g Ceilin N2A),",
               "Intersection of 'g Ceilin NEA' with 'm GFloor NEA' results in (g Ceilin NEA), (m GFloor NEA),",
               "Intersection of 'g Ceilin N1A' with 'm GFloor N1A' results in (g Ceilin N1A), (m GFloor N1A),",
               "Intersection of 'm GFloor SWA' with 'g Ceilin SWA' results in (m GFloor SWA), (g Ceilin SWA),",
               "Intersection of 'g Ceiling C' with 'm Floor C' results in (g Ceiling C), (m Floor C),",
               "Intersection of 'g Ceilin NWA' with 'm GFloor NWA' results in (g Ceilin NWA), (m GFloor NWA),",
               "Intersection of 'g Ceilin S2A' with 'm GFloor S2A' results in (g Ceilin S2A), (m GFloor S2A),",
               "Intersection of 'm Floor C' with 'g Ceiling C' results in (m Floor C), (g Ceiling C),",
               "Intersection of 'g Ceilin S1A' with 'm GFloor S1A' results in (g Ceilin S1A), (m GFloor S1A),",
               "Intersection of 'm GFloor NEA' with 'g Ceilin NEA' results in (m GFloor NEA), (g Ceilin NEA),",
               "Intersection of 'g Ceilin SEA' with 'm GFloor SEA' results in (g Ceilin SEA), (m GFloor SEA),",
               "Intersection of 'm GFloor N1A' with 'g Ceilin N1A' results in (m GFloor N1A), (g Ceilin N1A),",
               "Intersection of 'g Ceilin SWA' with 'm GFloor SWA' results in (g Ceilin SWA), (m GFloor SWA),",
               "Finished adding geometry",
               "Found mulitpliers for space {\"M Corridor\"=>2, \"M N1 Apartment\"=>2, \"M N2 Apartment\"=>2, \"M NE Apartment\"=>2, \"M NW Apartment\"=>2, \"M S1 Apartment\"=>2, \"M S2 Apartment\"=>2, \"M SE Apartment\"=>2, \"M SW Apartment\"=>2}",
               "Started adding weather file for climate zone: NECB HDD Method.",
               "Started applying space types (loads)",
               "Space Function Conference/Meeting/Multi-purpose room had no people, one has been created.",
               "Space Function Conference/Meeting/Multi-purpose room set occupancy to 18.58736059479554 people/1000 ft^2.",
               "Space Function Conference/Meeting/Multi-purpose room had no lights, one has been created.",
               "Space Function Conference/Meeting/Multi-purpose room set LPD to 1.068376 W/ft^2.",
               "Space Function Conference/Meeting/Multi-purpose room had no electric equipment, one has been created.",
               "Space Function Conference/Meeting/Multi-purpose room set electric EPD to 0.0929368029739777 W/ft^2.",
               "Space Function Conference/Meeting/Multi-purpose room had no ventilation specification, one has been created.",
               "Space Function Conference/Meeting/Multi-purpose room set ventilation per area to 0.31 cfm/ft^2.",
               "Space Function Conference/Meeting/Multi-purpose room had no infiltration objects, one has been created.",
               "Space Function Conference/Meeting/Multi-purpose room set infiltration to 0.0 per ft^2 exterior surface area.",
               "Space Function Conference/Meeting/Multi-purpose room set occupancy schedule to NECB-C-Occupancy.",
               "Space Function Conference/Meeting/Multi-purpose room set occupant activity schedule to NECB-Activity.",
[...]
ool_capacity(kW)\"=>0.0, \"heat_cost\"=>0.0, \"cool_cost\"=>0.0, \"heatcool_cost\"=>0.0, \"num_units\"=>nil, \"cummultive_cost\"=>3262.7}, {\"systype\"=>\"PTAC\", \"zone_number\"=>3, \"zone_name\"=>\"Sp-G N2 Apartment Sys-1 Flr-1 Sch-G HPlcmt-north ZN\", \"zone_multiple\"=>1, \"heat_capacity(kW)\"=>2.4, \"cool_capacity(kW)\"=>1.8, \"heat_cost\"=>0.0, \"cool_cost\"=>1631.35, \"heatcool_cost\"=>0.0, \"num_units\"=>1.0, \"cummultive_cost\"=>4894.05}, {\"systype\"=>nil, \"zone_number\"=>3, \"zone_name\"=>\"Sp-G N2 Apartment Sys-1 Flr-1 Sch-G HPlcmt-north ZN\", \"zone_multiple\"=>1, \"heat_capacity(kW)\"=>2.4, \"cool_capacity(kW)\"=>0.0, \"heat_cost\"=>0.0, \"cool_cost\"=>0.0, \"heatcool_cost\"=>0.0, \"num_units\"=>nil, \"cummultive_cost\"=>4894.05}, {\"systype\"=>\"PTAC\", \"zone_number\"=>4, \"zone_name\"=>\"Sp-G NE Apartment Sys-1 Flr-1 Sch-G HPlcmt-north ZN\", \"zone_multiple\"=>1, \"heat_capacity(kW)\"=>3.3, \"cool_capacity(kW)\"=>3.9, \"heat_cost\"=>0.0, \"cool_cost\"=>2095.58, \"heatcool_cost\"=>0.0, \"num_units\"=>1.0, \"cummultive_cost\"=>6989.62}, {\"systype\"=>nil, \"zone_number\"=>4, \"zone_name\"=>\"Sp-G NE Apartment Sys-1 Flr-1 Sch-G HPlcmt-north ZN\", \"zone_multiple\"=>1, \"heat_capacity(kW)\"=>3.3, \"cool_capacity(kW)\"=>0.0, \"heat_cost\"=>0.0, \"cool_cost\"=>0.0, \"heatcool_cost\"=>0.0, \"num_units\"=>nil, \"cummultive_cost\"=>6989.62}, {\"systype\"=>\"PTAC\", \"zone_number\"=>5, \"zone_name\"=>\"Sp-G NW Apartment Sys-1 Flr-1 Sch-G HPlcmt-north ZN\", \"zone_multiple\"=>1, \"heat_capacity(kW)\"=>3.3, \"cool_capacity(kW)\"=>3.8, \"heat_cost\"=>0.0, \"cool_cost\"=>2095.58, \"heatcool_cost\"=>0.0, \"num_units\"=>1.0, \"cummultive_cost\"=>9085.2}, {\"systype\"=>nil, \"zone_number\"=>5, \"zone_name\"=>\"Sp-G NW Apartment Sys-1 Flr-1 Sch-G HPlcmt-north ZN\", \"zone_multiple\"=>1, \"heat_capacity(kW)\"=>3.3, \"cool_capacity(kW)\"=>0.0, \"heat_cost\"=>0.0, \"cool_cost\"=>0.0, \"heatcool_cost\"=>0.0, \"num_units\"=>nil, \"cummultive_cost\"=>9085.2}, {\"systype\"=>\"PTAC\", \"zone_number\"=>6, \"zone_name\"=>\"Sp-G S1 Apartment Sys-1 Flr-1 Sch-G HPlcmt-south ZN\", \"zone_multiple\"=>1, \"heat_capacity(kW)\"=>2.3, \"cool_capacity(kW)\"=>3.1, \"heat_cost\"=>0.0, \"cool_cost\"=>1772.5, \"heatcool_cost\"=>0.0, \"num_units\"=>1.0, \"cummultive_cost\"=>10857.7}, {\"systype\"=>nil, \"zone_number\"=>6, \"zone_name\"=>\"Sp-G S1 Apartment Sys-1 Flr-1 Sch-G HPlcmt-south ZN\", \"zone_multiple\"=>1, \"heat_capacity(kW)\"=>2.3, \"cool_capacity(kW)\"=>0.0, \"heat_cost\"=>0.0, \"cool_cost\"=>0.0, \"heatcool_cost\"=>0.0, \"num_units\"=>nil, \"cummultive_cost\"=>10857.7}, {\"systype\"=>\"PTAC\", \"zone_number\"=>7, \"zone_name\"=>\"Sp-G S2 Apartment Sys-1 Flr-1 Sch-G HPlcmt-south ZN\", \"zone_multiple\"=>1, \"heat_capacity(kW)\"=>2.3, \"cool_capacity(kW)\"=>3.2, \"heat_cost\"=>0.0, \"cool_cost\"=>1772.5, \"heatcool_cost\"=>0.0, \"num_units\"=>1.0, \"cummultive_cost\"=>12630.2}, {\"systype\"=>nil, \"zone_number\"=>7, \"zone_name\"=>\"Sp-G S2 Apartment Sys-1 Flr-1 Sch-G HPlcmt-south ZN\", \"zone_multiple\"=>1, \"heat_capacity(kW)\"=>2.3, \"cool_capacity(kW)\"=>0.0, \"heat_cost\"=>0.0, \"cool_cost\"=>0.0, \"heatcool_cost\"=>0.0, \"num_units\"=>nil, \"cummultive_cost\"=>12630.2}, {\"systype\"=>\"PTAC\", \"zone_number\"=>8, \"zone_name\"=>\"Sp-G SW Apartment Sys-1 Flr-1 Sch-G HPlcmt-south ZN\", \"zone_multiple\"=>1, \"heat_capacity(kW)\"=>3.3, \"cool_capacity(kW)\"=>4.2, \"heat_cost\"=>0.0, \"cool_cost\"=>2095.58, \"heatcool_cost\"=>0.0, \"num_units\"=>1.0, \"cummultive_cost\"=>14725.77}, {\"systype\"=>nil, \"zone_number\"=>8, \"zone_name\"=>\"Sp-G SW Apartment Sys-1 Flr-1 Sch-G HPlcmt-south ZN\", \"zone_multiple\"=>1, \"heat_capacity(kW)\"=>3.3, \"cool_capacity(kW)\"=>0.0, \"heat_cost\"=>0.0, \"cool_cost\"=>0.0, \"heatcool_cost\"=>0.0, \"num_units\"=>nil, \"cummultive_cost\"=>14725.77}, {\"systype\"=>\"PTAC\", \"zone_number\"=>9, \"zone_name\"=>\"Sp-M Corridor Sys-1 Flr-2 Sch-G HPlcmt-east ZN\", \"zone_multiple\"=>2, \"heat_capacity(kW)\"=>6.9, \"cool_capacity(kW)\"=>4.5, \"heat_cost\"=>0.0, \"cool_cost\"=>3262.7, \"heatcool_cost\"=>0.0, \"num_units\"=>1.0, \"cummultive_cost\"=>17988.47}, {\"systype\"=>nil, \"zone_number\"=>9, \"zone_name\"=>\"Sp-M Corridor Sys-1 Flr-2 Sch-G HPlcmt-east ZN\", \"zone_multiple\"=>2, \"heat_capacity(kW)\"=>6.9, \"cool_capacity(kW)\"=>0.0, \"heat_cost\"=>0.0, \"cool_cost\"=>0.0, \"heatcool_cost\"=>0.0, \"num_units\"=>nil, \"cummultive_cost\"=>17988.47}, {\"systype\"=>\"PTAC\", \"zone_number\"=>10, \"zone_name\"=>\"Sp-M N1 Apartment Sys-1 Flr-2 Sch-G HPlcmt-north ZN\", \"zone_multiple\"=>2, \"heat_capacity(kW)\"=>5.5, \"cool_capacity(kW)\"=>4.1, \"heat_cost\"=>0.0, \"cool_cost\"=>3262.7, \"heatcool_cost\"=>0.0, \"num_units\"=>1.0, \"cummultive_cost\"=>21251.17}, {\"systype\"=>nil, \"zone_number\"=>10, \"zone_name\"=>\"Sp-M N1 Apartment Sys-1 Flr-2 Sch-G HPlcmt-north ZN\", \"zone_multiple\"=>2, \"heat_capacity(kW)\"=>5.5, \"cool_capacity(kW)\"=>0.0, \"heat_cost\"=>0.0, \"cool_cost\"=>0.0, \"heatcool_cost\"=>0.0, \"num_units\"=>nil, \"cummultive_cost\"=>21251.17}, {\"systype\"=>\"PTAC\", \"zone_number\"=>11, \"zone_name\"=>\"Sp-M N2 Apartment Sys-1 Flr-2 Sch-G HPlcmt-north ZN\", \"zone_multiple\"=>2, \"heat_capacity(kW)\"=>5.5, \"cool_capacity(kW)\"=>3.9, \"heat_cost\"=>0.0, \"cool_cost\"=>3262.7, \"heatcool_cost\"=>0.0, \"num_units\"=>1.0, \"cummultive_cost\"=>24513.87}, {\"systype\"=>nil, \"zone_number\"=>11, \"zone_name\"=>\"Sp-M N2 Apartment Sys-1 Flr-2 Sch-G HPlcmt-north ZN\", \"zone_multiple\"=>2, \"heat_capacity(kW)\"=>5.5, \"cool_capacity(kW)\"=>0.0, \"heat_cost\"=>0.0, \"cool_cost\"=>0.0, \"heatcool_cost\"=>0.0, \"num_units\"=>nil, \"cummultive_cost\"=>24513.87}, {\"systype\"=>\"PTAC\", \"zone_number\"=>12, \"zone_name\"=>\"Sp-M NE Apartment Sys-1 Flr-2 Sch-G HPlcmt-north ZN\", \"zone_multiple\"=>2, \"heat_capacity(kW)\"=>7.7, \"cool_capacity(kW)\"=>8.2, \"heat_cost\"=>0.0, \"cool_cost\"=>4191.15, \"heatcool_cost\"=>0.0, \"num_units\"=>1.0, \"cummultive_cost\"=>28705.02}, {\"systype\"=>nil, \"zone_number\"=>12, \"zone_name\"=>\"Sp-M NE Apartment Sys-1 Flr-2 Sch-G HPlcmt-north ZN\", \"zone_multiple\"=>2, \"heat_capacity(kW)\"=>7.7, \"cool_capacity(kW)\"=>0.0, \"heat_cost\"=>0.0, \"cool_cost\"=>0.0, \"heatcool_cost\"=>0.0, \"num_units\"=>nil, \"cummultive_cost\"=>28705.02}, {\"systype\"=>\"PTAC\", \"zone_number\"=>13, \"zone_name\"=>\"Sp-M NW Apartment Sys-1 Flr-2 Sch-G HPlcmt-north ZN\", \"zone_multiple\"=>2, \"heat_capacity(kW)\"=>7.7, \"cool_capacity(kW)\"=>8.8, \"heat_cost\"=>0.0, \"cool_cost\"=>4191.15, \"heatcool_cost\"=>0.0, \"num_units\"=>1.0, \"cummultive_cost\"=>32896.18}, {\"systype\"=>nil, \"zone_number\"=>13, \"zone_name\"=>\"Sp-M NW Apartment Sys-1 Flr-2 Sch-G HPlcmt-north ZN\", \"zone_multiple\"=>2, \"heat_capacity(kW)\"=>7.7, \"cool_capacity(kW)\"=>0.0, \"heat_cost\"=>0.0, \"cool_cost\"=>0.0, \"heatcool_cost\"=>0.0, \"num_units\"=>nil, \"cummultive_cost\"=>32896.18}, {\"systype\"=>\"PTAC\", \"zone_number\"=>14, \"zone_name\"=>\"Sp-M S1 Apartment Sys-1 Flr-2 Sch-G HPlcmt-south ZN\", \"zone_multiple\"=>2, \"heat_capacity(kW)\"=>5.5, \"cool_capacity(kW)\"=>6.9, \"heat_cost\"=>0.0, \"cool_cost\"=>3544.99, \"heatcool_cost\"=>0.0, \"num_units\"=>1.0, \"cummultive_cost\"=>36441.17}, {\"systype\"=>nil, \"zone_number\"=>14, \"zone_name\"=>\"Sp-M S1 Apartment Sys-1 Flr-2 Sch-G HPlcmt-south ZN\", \"zone_multiple\"=>2, \"heat_capacity(kW)\"=>5.5, \"cool_capacity(kW)\"=>0.0, \"heat_cost\"=>0.0, \"cool_cost\"=>0.0, \"heatcool_cost\"=>0.0, \"num_units\"=>nil, \"cummultive_cost\"=>36441.17}, {\"systype\"=>\"PTAC\", \"zone_number\"=>15, \"zone_name\"=>\"Sp-M S2 Apartment Sys-1 Flr-2 Sch-G HPlcmt-south ZN\", \"zone_multiple\"=>2, \"heat_capacity(kW)\"=>5.5, \"cool_capacity(kW)\"=>7.0, \"heat_cost\"=>0.0, \"cool_cost\"=>3544.99, \"heatcool_cost\"=>0.0, \"num_units\"=>1.0, \"cummultive_cost\"=>39986.17}, {\"systype\"=>nil, \"zone_number\"=>15, \"zone_name\"=>\"Sp-M S2 Apartment Sys-1 Flr-2 Sch-G HPlcmt-south ZN\", \"zone_multiple\"=>2, \"heat_capacity(kW)\"=>5.5, \"cool_capacity(kW)\"=>0.0, \"heat_cost\"=>0.0, \"cool_cost\"=>0.0, \"heatcool_cost\"=>0.0, \"num_units\"=>nil, \"cummultive_cost\"=>39986.17}, {\"systype\"=>\"PTAC\", \"zone_number\"=>16, \"zone_name\"=>\"Sp-M SE Apartment Sys-1 Flr-2 Sch-G HPlcmt-south ZN\", \"zone_multiple\"=>2, \"heat_capacity(kW)\"=>7.6, \"cool_capacity(kW)\"=>8.6, \"heat_cost\"=>0.0, \"cool_cost\"=>4191.15, \"heatcool_cost\"=>0.0, \"num_units\"=>1.0, \"cummultive_cost\"=>44177.32}, {\"systype\"=>nil, \"zone_number\"=>16, \"zone_name\"=>\"Sp-M SE Apartment Sys-1 Flr-2 Sch-G HPlcmt-south ZN\", \"zone_multiple\"=>2, \"heat_capacity(kW)\"=>7.6, \"cool_capacity(kW)\"=>0.0, \"heat_cost\"=>0.0, \"cool_cost\"=>0.0, \"heatcool_cost\"=>0.0, \"num_units\"=>nil, \"cummultive_cost\"=>44177.32}, {\"systype\"=>\"PTAC\", \"zone_number\"=>17, \"zone_name\"=>\"Sp-M SW Apartment Sys-1 Flr-2 Sch-G HPlcmt-south ZN\", \"zone_multiple\"=>2, \"heat_capacity(kW)\"=>7.7, \"cool_capacity(kW)\"=>9.7, \"heat_cost\"=>0.0, \"cool_cost\"=>5996.71, \"heatcool_cost\"=>0.0, \"num_units\"=>1.0, \"cummultive_cost\"=>50174.04}, {\"systype\"=>nil, \"zone_number\"=>17, \"zone_name\"=>\"Sp-M SW Apartment Sys-1 Flr-2 Sch-G HPlcmt-south ZN\", \"zone_multiple\"=>2, \"heat_capacity(kW)\"=>7.7, \"cool_capacity(kW)\"=>0.0, \"heat_cost\"=>0.0, \"cool_cost\"=>0.0, \"heatcool_cost\"=>0.0, \"num_units\"=>nil, \"cummultive_cost\"=>50174.04}, {\"systype\"=>nil, \"zone_number\"=>18, \"zone_name\"=>\"Sp-Office Sys-3 Flr-1 Sch-C HPlcmt-south ZN\", \"zone_multiple\"=>1, \"heat_capacity(kW)\"=>3.6, \"cool_capacity(kW)\"=>0.0, \"heat_cost\"=>0.0, \"cool_cost\"=>0.0, \"heatcool_cost\"=>0.0, \"num_units\"=>nil, \"cummultive_cost\"=>50174.04}, {\"systype\"=>\"PTAC\", \"zone_number\"=>19, \"zone_name\"=>\"Sp-T Corridor Sys-1 Flr-3 Sch-G HPlcmt-west ZN\", \"zone_multiple\"=>1, \"heat_capacity(kW)\"=>5.3, \"cool_capacity(kW)\"=>3.9, \"heat_cost\"=>0.0, \"cool_cost\"=>2095.58, \"heatcool_cost\"=>0.0, \"num_units\"=>1.0, \"cummultive_cost\"=>52269.61}, {\"systype\"=>nil, \"zone_number\"=>19, \"zone_name\"=>\"Sp-T Corridor Sys-1 Flr-3 Sch-G HPlcmt-west ZN\", \"zone_multiple\"=>1, \"heat_capacity(kW)\"=>5.3, \"cool_capacity(kW)\"=>0.0, \"heat_cost\"=>0.0, \"cool_cost\"=>0.0, \"heatcool_cost\"=>0.0, \"num_units\"=>nil, \"cummultive_cost\"=>52269.61}, {\"systype\"=>\"PTAC\", \"zone_number\"=>20, \"zone_name\"=>\"Sp-T N1 Apartment Sys-1 Flr-3 Sch-G HPlcmt-north ZN\", \"zone_multiple\"=>1, \"heat_capacity(kW)\"=>4.5, \"cool_capacity(kW)\"=>3.4, \"heat_cost\"=>0.0, \"cool_cost\"=>1772.5, \"heatcool_cost\"=>0.0, \"num_units\"=>1.0, \"cummultive_cost\"=>54042.11}, {\"systype\"=>nil, \"zone_number\"=>20, \"zone_name\"=>\"Sp-T N1 Apartment Sys-1 Flr-3 Sch-G HPlcmt-north ZN\", \"zone_multiple\"=>1, \"heat_capacity(kW)\"=>4.5, \"cool_capacity(kW)\"=>0.0, \"heat_cost\"=>0.0, \"cool_cost\"=>0.0, \"heatcool_cost\"=>0.0, \"num_units\"=>nil, \"cummultive_cost\"=>54042.11}, {\"systype\"=>\"PTAC\", \"zone_number\"=>21, \"zone_name\"=>\"Sp-T N2 Apartment Sys-1 Flr-3 Sch-G HPlcmt-north ZN\", \"zone_multiple\"=>1, \"heat_capacity(kW)\"=>4.5, \"cool_capacity(kW)\"=>3.4, \"heat_cost\"=>0.0, \"cool_cost\"=>1772.5, \"heatcool_cost\"=>0.0, \"num_units\"=>1.0, \"cummultive_cost\"=>55814.61}, {\"systype\"=>nil, \"zone_number\"=>21, \"zone_name\"=>\"Sp-T N2 Apartment Sys-1 Flr-3 Sch-G HPlcmt-north ZN\", \"zone_multiple\"=>1, \"heat_capacity(kW)\"=>4.5, \"cool_capacity(kW)\"=>0.0, \"heat_cost\"=>0.0, \"cool_cost\"=>0.0, \"heatcool_cost\"=>0.0, \"num_units\"=>nil, \"cummultive_cost\"=>55814.61}, {\"systype\"=>\"PTAC\", \"zone_number\"=>22, \"zone_name\"=>\"Sp-T NE Apartment Sys-1 Flr-3 Sch-G HPlcmt-north ZN\", \"zone_multiple\"=>1, \"heat_capacity(kW)\"=>5.5, \"cool_capacity(kW)\"=>5.1, \"heat_cost\"=>0.0, \"cool_cost\"=>2998.36, \"heatcool_cost\"=>0.0, \"num_units\"=>1.0, \"cummultive_cost\"=>58812.96}, {\"systype\"=>nil, \"zone_number\"=>22, \"zone_name\"=>\"Sp-T NE Apartment Sys-1 Flr-3 Sch-G HPlcmt-north ZN\", \"zone_multiple\"=>1, \"heat_capacity(kW)\"=>5.5, \"cool_capacity(kW)\"=>0.0, \"heat_cost\"=>0.0, \"cool_cost\"=>0.0, \"heatcool_cost\"=>0.0, \"num_units\"=>nil, \"cummultive_cost\"=>58812.96}, {\"systype\"=>\"PTAC\", \"zone_number\"=>23, \"zone_name\"=>\"Sp-T NW Apartment Sys-1 Flr-3 Sch-G HPlcmt-north ZN\", \"zone_multiple\"=>1, \"heat_capacity(kW)\"=>5.5, \"cool_capacity(kW)\"=>5.5, \"heat_cost\"=>0.0, \"cool_cost\"=>3104.15, \"heatcool_cost\"=>0.0, \"num_units\"=>1.0, \"cummultive_cost\"=>61917.11}, {\"systype\"=>nil, \"zone_number\"=>23, \"zone_name\"=>\"Sp-T NW Apartment Sys-1 Flr-3 Sch-G HPlcmt-north ZN\", \"zone_multiple\"=>1, \"heat_capacity(kW)\"=>5.5, \"cool_capacity(kW)\"=>0.0, \"heat_cost\"=>0.0, \"cool_cost\"=>0.0, \"heatcool_cost\"=>0.0, \"num_units\"=>nil, \"cummultive_cost\"=>61917.11}, {\"systype\"=>\"PTAC\", \"zone_number\"=>24, \"zone_name\"=>\"Sp-T S1 Apartment Sys-1 Flr-3 Sch-G HPlcmt-south ZN\", \"zone_multiple\"=>1, \"heat_capacity(kW)\"=>4.5, \"cool_capacity(kW)\"=>5.4, \"heat_cost\"=>0.0, \"cool_cost\"=>3104.15, \"heatcool_cost\"=>0.0, \"num_units\"=>1.0, \"cummultive_cost\"=>65021.26}, {\"systype\"=>nil, \"zone_number\"=>24, \"zone_name\"=>\"Sp-T S1 Apartment Sys-1 Flr-3 Sch-G HPlcmt-south ZN\", \"zone_multiple\"=>1, \"heat_capacity(kW)\"=>4.5, \"cool_capacity(kW)\"=>0.0, \"heat_cost\"=>0.0, \"cool_cost\"=>0.0, \"heatcool_cost\"=>0.0, \"num_units\"=>nil, \"cummultive_cost\"=>65021.26}, {\"systype\"=>\"PTAC\", \"zone_number\"=>25, \"zone_name\"=>\"Sp-T S2 Apartment Sys-1 Flr-3 Sch-G HPlcmt-south ZN\", \"zone_multiple\"=>1, \"heat_capacity(kW)\"=>4.5, \"cool_capacity(kW)\"=>5.4, \"heat_cost\"=>0.0, \"cool_cost\"=>3104.15, \"heatcool_cost\"=>0.0, \"num_units\"=>1.0, \"cummultive_cost\"=>68125.41}, {\"systype\"=>nil, \"zone_number\"=>25, \"zone_name\"=>\"Sp-T S2 Apartment Sys-1 Flr-3 Sch-G HPlcmt-south ZN\", \"zone_multiple\"=>1, \"heat_capacity(kW)\"=>4.5, \"cool_capacity(kW)\"=>0.0, \"heat_cost\"=>0.0, \"cool_cost\"=>0.0, \"heatcool_cost\"=>0.0, \"num_units\"=>nil, \"cummultive_cost\"=>68125.41}, {\"systype\"=>\"PTAC\", \"zone_number\"=>26, \"zone_name\"=>\"Sp-T SE Apartment Sys-1 Flr-3 Sch-G HPlcmt-south ZN\", \"zone_multiple\"=>1, \"heat_capacity(kW)\"=>5.5, \"cool_capacity(kW)\"=>6.1, \"heat_cost\"=>0.0, \"cool_cost\"=>3104.15, \"heatcool_cost\"=>0.0, \"num_units\"=>1.0, \"cummultive_cost\"=>71229.55}, {\"systype\"=>nil, \"zone_number\"=>26, \"zone_name\"=>\"Sp-T SE Apartment Sys-1 Flr-3 Sch-G HPlcmt-south ZN\", \"zone_multiple\"=>1, \"heat_capacity(kW)\"=>5.5, \"cool_capacity(kW)\"=>0.0, \"heat_cost\"=>0.0, \"cool_cost\"=>0.0, \"heatcool_cost\"=>0.0, \"num_units\"=>nil, \"cummultive_cost\"=>71229.55}, {\"systype\"=>\"PTAC\", \"zone_number\"=>27, \"zone_name\"=>\"Sp-T SW Apartment Sys-1 Flr-3 Sch-G HPlcmt-south ZN\", \"zone_multiple\"=>1, \"heat_capacity(kW)\"=>5.5, \"cool_capacity(kW)\"=>6.3, \"heat_cost\"=>0.0, \"cool_cost\"=>3104.15, \"heatcool_cost\"=>0.0, \"num_units\"=>1.0, \"cummultive_cost\"=>74333.7}, {\"systype\"=>nil, \"zone_number\"=>27, \"zone_name\"=>\"Sp-T SW Apartment Sys-1 Flr-3 Sch-G HPlcmt-south ZN\", \"zone_multiple\"=>1, \"heat_capacity(kW)\"=>5.5, \"cool_capacity(kW)\"=>0.0, \"heat_cost\"=>0.0, \"cool_cost\"=>0.0, \"heatcool_cost\"=>0.0, \"num_units\"=>nil, \"cummultive_cost\"=>74333.7}]}, \"shw\"=>{}, \"ventilation\"=>{}, \"totals\"=>{\"envelope\"=>178772.81, \"lighting\"=>70045.87, \"heating_and_cooling\"=>74333.7, \"shw\"=>0.0, \"ventilation\"=>148476.58, \"grand_total\"=>471628.96}, \"zonal systems\"=>{}}"
               },
               {
                  "name" : "total_envelope_cost",
                  "value" : 178772.81
               },
               {
                  "name" : "total_lighting_cost",
                  "value" : 70045.869999999995
               },
               {
                  "name" : "total_heating_cooling_cost",
                  "value" : 0
               },
               {
                  "name" : "total_shw_cost",
                  "value" : 0
               },
               {
                  "name" : "total_ventilation_cost",
                  "value" : 148476.57999999999
               },
               {
                  "name" : "total_capital_cost",
                  "value" : 0
               },
               {
                  "name" : "total_neb_utility_costs",
                  "value" : 31182.7418
               },
               {
                  "name" : "total_capital_and_energy_costs",
                  "value" : 31182.7418
               },
               {
                  "name" : "total_envelope_and_energy_costs",
                  "value" : 209955.55179999999
               }
            ],
            "step_warnings" : []
         }
      },
      {
         "arguments" : {},
         "description" : "Removes a significant portion of the saved results from each run, helping to alleviate memory problems.",
         "measure_dir_name" : "ServerDirectoryCleanup",
         "name" : "server_directory_cleanup",
         "result" : {
            "completed_at" : "20190517T152551Z",
            "measure_class_name" : "ServerDirectoryCleanup",
            "measure_display_name" : "Server Directory Cleanup",
            "measure_name" : "server_directory_cleanup",
            "measure_taxonomy" : "Calibration",
            "measure_type" : "ReportingMeasure",
            "measure_uid" : "ec7d04ad-0b7b-495b-825a-e1b6d28d1d3f",
            "measure_version_id" : "2e0a3f67-3aa6-42cc-b9ff-8aa66615c0a1",
            "measure_version_modified" : "20190226T195336Z",
            "measure_xml_checksum" : "5F1EDF75",
            "started_at" : "20190517T152551Z",
            "stderr" : "",
            "stdout" : "[OpenStudio.Measure] <0> OSArgumentVector is deprecated, use OpenStudio::Measure::OSArgumentVector instead.\n",
            "step_errors" : [],
            "step_files" : [],
            "step_final_condition" : "The following files were in the local run directory following to the execution of this measure: eplusout.mtr, 000_btap_create_necb_prototype_building, sqlite.err, run.log, in.epw, pre-preprocess.idf, measure_attributes.json, eplusout.rdd, 002_btap_utility_tariffs, 001_BTAPHeatPumpAirSystem, 003_ServerDirectoryCleanup, eplusout.mtd, stdout-expandobject, 004_ServerDirectoryCleanup, in.idf, ., eplusout.end, eplustbl.htm, stdout-energyplus, eplusout.err, 003_btap_results, started.job, ...",
            "step_info" : [
               "Deleted ./../eplusout.sql from the run directory.",
               "Deleted ./../eplusout.audit from the run directory.",
               "Deleted ./../in.osm from the run directory.",
               "Deleted ./../eplusout.bnd from the run directory.",
               "Deleted ./../eplusout.eio from the run directory.",
               "Deleted ./../eplusout.shd from the run directory.",
               "Deleted ./../eplusout.mdd from the run directory.",
               "Deleted ./../eplusssz.csv from the run directory.",
               "Deleted ./../epluszsz.csv from the run directory.",
               "Deleted ./../eplusout.eso from the run directory."
            ],
            "step_initial_condition" : "The following files were in the local run directory prior to the execution of this measure: in.osm, eplusout.sql, eplusssz.csv, eplusout.mtr, 000_btap_create_necb_prototype_building, sqlite.err, run.log, in.epw, pre-preprocess.idf, epluszsz.csv, eplusout.bnd, measure_attributes.json, eplusout.rdd, 002_btap_utility_tariffs, 001_BTAPHeatPumpAirSystem, 003_ServerDirectoryCleanup, eplusout.mtd, eplusout.eio, stdout-expandobject, eplusout.eso, 004_ServerDirectoryCleanup, in.idf, eplusout.shd, ., eplusout.end, eplustbl.htm, stdout-energyplus, eplusout.err, eplusout.audit, 003_btap_results, eplusout.mdd, started.job, ...",
            "step_result" : "Success",
            "step_values" : [],
            "step_warnings" : []
         }
      }
   ],
   "updated_at" : "20190517T152556Z",
   "weather_file" : "dummy.epw"
}
