{
   "completed_at" : "20190517T152535Z",
   "completed_status" : "Success",
   "created_at" : "2019-05-17 15:22:17 +0000",
   "current_step" : 5,
   "description" : "",
   "eplusout_err" : "Program Version,EnergyPlus, Version 8.9.0-eba93e8e1b, YMD=2019.05.17 15:24,\n   ************* Beginning Zone Sizing Calculations\n   ** Warning ** ProcessScheduleInput: Schedule:Day:Interval=\"ECONOMIZER MAX OA FRACTION 100 PCT DEFAULT\", Blank Schedule Type Limits Name input -- will not be validated.\n   ** Warning ** ProcessScheduleInput: Schedule:Day:Interval=\"SCHEDULE DAY 1\", Blank Schedule Type Limits Name input -- will not be validated.\n   ** Warning ** ProcessScheduleInput: Schedule:Day:Interval=\"SCHEDULE DAY 10\", Blank Schedule Type Limits Name input -- will not be validated.\n   ** Warning ** ProcessScheduleInput: Schedule:Day:Interval=\"SCHEDULE DAY 11\", Blank Schedule Type Limits Name input -- will not be validated.\n   ** Warning ** ProcessScheduleInput: Schedule:Day:Interval=\"SCHEDULE DAY 12\", Blank Schedule Type Limits Name input -- will not be validated.\n   ** Warning ** ProcessScheduleInput: Schedule:Day:Interval=\"SCHEDULE DAY 13\", Blank Schedule Type Limits Name input -- will not be validated.\n   ** Warning ** ProcessScheduleInput: Schedule:Day:Interval=\"SCHEDULE DAY 14\", Blank Schedule Type Limits Name input -- will not be validated.\n   ** Warning ** ProcessScheduleInput: Schedule:Day:Interval=\"SCHEDULE DAY 15\", Blank Schedule Type Limits Name input -- will not be validated.\n   ** Warning ** ProcessScheduleInput: Schedule:Day:Interval=\"SCHEDULE DAY 16\", Blank Schedule Type Limits Name input -- will not be validated.\n   ** Warning ** ProcessScheduleInput: Schedule:Day:Interval=\"SCHEDULE DAY 17\", Blank Schedule Type Limits Name input -- will not be validated.\n   ** Warning ** ProcessScheduleInput: Schedule:Day:Interval=\"SCHEDULE DAY 18\", Blank Schedule Type Limits Name input -- will not be validated.\n   ** Warning ** ProcessScheduleInput: Schedule:Day:Interval=\"SCHEDULE DAY 19\", Blank Schedule Type Limits Name input -- will not be validated.\n   ** Warning ** ProcessScheduleInput: Schedule:Day:Interval=\"SCHEDULE DAY 2\", Blank Schedule Type Limits Name input -- will not be validated.\n   ** Warning ** ProcessScheduleInput: Schedule:Day:Interval=\"SCHEDULE DAY 20\", Blank Schedule Type Limits Name input -- will not be validated.\n   ** Warning ** ProcessScheduleInput: Schedule:Day:Interval=\"SCHEDULE DAY 21\", Blank Schedule Type Limits Name input -- will not be validated.\n   ** Warning ** ProcessScheduleInput: Schedule:Day:Interval=\"SCHEDULE DAY 22\", Blank Schedule Type Limits Name input -- will not be validated.\n   ** Warning ** ProcessScheduleInput: Schedule:Day:Interval=\"SCHEDULE DAY 23\", Blank Schedule Type Limits Name input -- will not be validated.\n   ** Warning ** ProcessScheduleInput: Schedule:Day:Interval=\"SCHEDULE DAY 24\", Blank Schedule Type Limits Name input -- will not be validated.\n   ** Warning ** ProcessScheduleInput: Schedule:Day:Interval=\"SCHEDULE DAY 25\", Blank Schedule Type Limits Name input -- will not be validated.\n   ** Warning ** ProcessScheduleInput: Schedule:Day:Interval=\"SCHEDULE DAY 26\", Blank Schedule Type Limits Name input -- will not be validated.\n   ** Warning ** ProcessScheduleInput: Schedule:Day:Interval=\"SCHEDULE DAY 27\", Blank Schedule Type Limits Name input -- will not be validated.\n   ** Warning ** ProcessScheduleInput: Schedule:Day:Interval=\"SCHEDULE DAY 28\", Blank Schedule Type Limits Name input -- will not be validated.\n   ** Warning ** ProcessScheduleInput: Schedule:Day:Interval=\"SCHEDULE DAY 29\", Blank Schedule Type Limits Name input -- will not be validated.\n   ** Warning ** ProcessScheduleInput: Schedule:Day:Interval=\"SCHEDULE DAY 30\", Blank Schedule Type Limits Name input -- will not be validated.\n   ** Warning ** ProcessScheduleInput: Schedule:Day:Interval=\"SCHEDULE DAY 31\", Blank Schedule Type Limits Name input -- will not be validated.\n   ** Warning ** ProcessScheduleInput: Schedule:Day:Interval=\"SCHEDULE DAY 32\", Blank Schedule Type Limits Name input -- will not be validated.\n   ** Warning ** ProcessScheduleInput: Schedule:Day:Interval=\"SCHEDULE DAY 33\", Blank Schedule Type Limits Name input -- will not be validated.\n   ** Warning ** ProcessScheduleInput: Schedule:Day:Interval=\"SCHEDULE DAY 34\", Blank Schedule Type Limits Name input -- will not be validated.\n   ** Warning ** ProcessScheduleInput: Schedule:Day:Interval=\"SCHEDULE DAY 35\", Blank Schedule Type Limits Name input -- will not be validated.\n   ** Warning ** ProcessScheduleInput: Schedule:Day:Interval=\"SCHEDULE DAY 36\", Blank Schedule Type Limits Name input -- will not be validated.\n   ** Warning ** ProcessScheduleInput: Schedule:Day:Interval=\"SCHEDULE DAY 37\", Blank Schedule Type Limits Name input -- will not be validated.\n   ** Warning ** ProcessScheduleInput: Schedule:Day:Interval=\"SCHEDULE DAY 38\", Blank Schedule Type Limits Name input -- will not be validated.\n   ** Warning ** ProcessScheduleInput: Schedule:Day:Interval=\"SCHEDULE DAY 39\", Blank Schedule Type Limits Name input -- will not be validated.\n   ** Warning ** ProcessScheduleInput: Schedule:Day:Interval=\"SCHEDULE DAY 40\", Blank Schedule Type Limits Name input -- will not be validated.\n   ** Warning ** ProcessScheduleInput: Schedule:Day:Interval=\"SCHEDULE DAY 41\", Blank Schedule Type Limits Name input -- will not be validated.\n   ** Warning ** ProcessScheduleInput: Schedule:Day:Interval=\"SCHEDULE DAY 42\", Blank Schedule Type Limits Name input -- will not be validated.\n   ** Warning ** ProcessScheduleInput: Schedule:Day:Interval=\"SCHEDULE DAY 43\", Blank Schedule Type Limits Name input -- will not be validated.\n   ** Warning ** ProcessScheduleInput: Schedule:Day:Interval=\"SCHEDULE DAY 44\", Blank Schedule Type Limits Name input -- will not be validated.\n   ** Warning ** ProcessScheduleInput: Schedule:Day:Interval=\"SCHEDULE DAY 45\", Blank Schedule Type Limits Name input -- will not be validated.\n   ** Warning ** ProcessScheduleInput: Schedule:Day:Interval=\"SCHEDULE DAY 46\", Blank Schedule Type Limits Name input -- will not be validated.\n   ** Warning ** ProcessScheduleInput: Schedule:Day:Interval=\"SCHEDULE DAY 47\", Blank Schedule Type Limits Name input -- will not be validated.\n   ** Warning ** ProcessScheduleInput: Schedule:Day:Interval=\"SCHEDULE DAY 48\", Blank Schedule Type Limits Name input -- will not be validated.\n   ** Warning ** ProcessScheduleInput: Schedule:Day:Interval=\"SCHEDULE DAY 49\", Blank Schedule Type Limits Name input -- will not be validated.\n   ** Warning ** ProcessScheduleInput: Schedule:Day:Interval=\"SCHEDULE DAY 50\", Blank Schedule Type Limits Name input -- will not be validated.\n   ** Warning ** ProcessScheduleInput: Schedule:Day:Interval=\"SCHEDULE DAY 51\", Blank Schedule Type Limits Name input -- will not be validated.\n   ** Warning ** ProcessScheduleInput: Schedule:Day:Interval=\"SCHEDULE DAY 52\", Blank Schedule Type Limits Name input -- will not be validated.\n   ** Warning ** ProcessScheduleInput: Schedule:Day:Interval=\"SCHEDULE DAY 53\", Blank Schedule Type Limits Name input -- will not be validated.\n   ** Warning ** ProcessScheduleInput: Schedule:Day:Interval=\"SCHEDULE DAY 54\", Blank Schedule Type Limits Name input -- will not be validated.\n   ** Warning ** ProcessScheduleInput: Schedule:Day:Interval=\"SCHEDULE DAY 55\", Blank Schedule Type Limits Name input -- will not be validated.\n   ** Warning ** ProcessScheduleInput: Schedule:Day:Interval=\"SCHEDULE DAY 56\", Blank Schedule Type Limits Name input -- will not be validated.\n   ** Warning ** ProcessScheduleInput: Schedule:Day:Interval=\"SCHEDULE DAY 57\", Blank Schedule Type Limits Name input -- will not be validated.\n   ** Warning ** ProcessScheduleInput: Schedule:Day:Interval=\"SCHEDULE DAY 7\", Blank Schedule Type Limits Name input -- will not be validated.\n   ** Warning ** ProcessScheduleInput: Schedule:Day:Interval=\"SCHEDULE DAY 8\", Blank Schedule Type Limits Name input -- will not be validated.\n   ** Warning ** ProcessScheduleInput: Schedule:Day:Interval=\"SCHEDULE DAY 9\", Blank Schedule Type Limits Name input -- will not be validated.\n   ** Warning ** ProcessScheduleInput: Schedule:Year=\"ECONOMIZER MAX OA FRACTION 100 PCT\", Blank Schedule Type Limits Name input -- will not be validated.\n   ** Warning ** ProcessScheduleInput: Schedule:Year=\"SCHEDULE RULESET 10\", Blank Schedule Type Limits Name input -- will not be validated.\n   ** Warning ** ProcessScheduleInput: Schedule:Year=\"SCHEDULE RULESET 11\", Blank Schedule Type Limits Name input -- will not be validated.\n   ** Warning ** ProcessScheduleInput: Schedule:Year=\"SCHEDULE RULESET 12\", Blank Schedule Type Limits Name input -- will not be validated.\n   ** Warning ** ProcessScheduleInput: Schedule:Year=\"SCHEDULE RULESET 13\", Blank Schedule Type Limits Name input -- will not be validated.\n   ** Warning ** ProcessScheduleInput: Schedule:Year=\"SCHEDULE RULESET 14\", Blank Schedule Type Limits Name input -- will not be validated.\n   ** Warning ** ProcessScheduleInput: Schedule:Year=\"SCHEDULE RULESET 15\", Blank Schedule Type Limits Name input -- will not be validated.\n   ** Warning ** ProcessScheduleInput: Schedule:Year=\"SCHEDULE RULESET 16\", Blank Schedule Type Limits Name input -- will not be validated.\n   ** Warning ** ProcessScheduleInput: Schedule:Year=\"SCHEDULE RULESET 17\", Blank Schedule Type Limits Name input -- will not be validated.\n   ** Warning ** ProcessScheduleInput: Schedule:Year=\"SCHEDULE RULESET 18\", Blank Schedule Type Limits Name input -- will not be validated.\n   ** Warning ** ProcessScheduleInput: Schedule:Year=\"SCHEDULE RULESET 19\", Blank Schedule Type Limits Name input -- will not be validated.\n   ** Warning ** ProcessScheduleInput: Schedule:Year=\"SCHEDULE RULESET 20\", Blank Schedule Type Limits Name input -- will not be validated.\n   ** Warning ** ProcessScheduleInput: Schedule:Year=\"SCHEDULE RULESET 21\", Blank Schedule Type Limits Name input -- will not be validated.\n   ** Warning ** ProcessScheduleInput: Schedule:Year=\"SCHEDULE RULESET 22\", Blank Schedule Type Limits Name input -- will not be validated.\n   ** Warning ** ProcessScheduleInput: Schedule:Year=\"SCHEDULE RULESET 23\", Blank Schedule Type Limits Name input -- will not be validated.\n   ** Warning ** ProcessScheduleInput: Schedule:Year=\"SCHEDULE RULESET 24\", Blank Schedule Type Limits Name input -- will not be validated.\n   ** Warning ** ProcessScheduleInput: Schedule:Year=\"SCHEDULE RULESET 25\", Blank Schedule Type Limits Name input -- will not be validated.\n   ** Warning ** ProcessScheduleInput: Schedule:Year=\"SCHEDULE RULESET 26\", Blank Schedule Type Limits Name input -- will not be validated.\n   ** Warning ** ProcessScheduleInput: Schedule:Year=\"SCHEDULE RULESET 27\", Blank Schedule Type Limits Name input -- will not be validated.\n   ** Warning ** ProcessScheduleInput: Schedule:Year=\"SCHEDULE RULESET 28\", Blank Schedule Type Limits Name input -- will not be validated.\n   ** Warning ** ProcessScheduleInput: Schedule:Year=\"SCHEDULE RULESET 29\", Blank Schedule Type Limits Name input -- will not be validated.\n   ** Warning ** ProcessScheduleInput: Schedule:Year=\"SCHEDULE RULESET 3\", Blank Schedule Type Limits Name input -- will not be validated.\n   ** Warning ** ProcessScheduleInput: Schedule:Year=\"SCHEDULE RULESET 30\", Blank Schedule Type Limits Name input -- will not be validated.\n   ** Warning ** ProcessScheduleInput: Schedule:Year=\"SCHEDULE RULESET 31\", Blank Schedule Type Limits Name input -- will not be validated.\n   ** Warning ** ProcessScheduleInput: Schedule:Year=\"SCHEDULE RULESET 32\", Blank Schedule Type Limits Name input -- will not be validated.\n   ** Warning ** ProcessScheduleInput: Schedule:Year=\"SCHEDULE RULESET 33\", Blank Schedule Type Limits Name input -- will not be validated.\n   ** Warning ** ProcessScheduleInput: Schedule:Year=\"SCHEDULE RULESET 34\", Blank Schedule Type Limits Name input -- will not be validated.\n   ** Warning ** ProcessScheduleInput: Schedule:Year=\"SCHEDULE RULESET 35\", Blank Schedule Type Limits Name input -- will not be validated.\n   ** Warning ** ProcessScheduleInput: Schedule:Year=\"SCHEDULE RULESET 36\", Blank Schedule Type Limits Name input -- will not be validated.\n   ** Warning ** ProcessScheduleInput: Schedule:Year=\"SCHEDULE RULESET 37\", Blank Schedule Type Limits Name input -- will not be validated.\n   ** Warning ** ProcessScheduleInput: Schedule:Year=\"SCHEDULE RULESET 38\", Blank Schedule Type Limits Name input -- will not be validated.\n   ** Warning ** ProcessScheduleInput: Schedule:Year=\"SCHEDULE RULESET 39\", Blank Schedule Type Limits Name input -- will not be validated.\n   ** Warning ** ProcessScheduleInput: Schedule:Year=\"SCHEDULE RULESET 4\", Blank Schedule Type Limits Name input -- will not be validated.\n   ** Warning ** ProcessScheduleInput: Schedule:Year=\"SCHEDULE RULESET 40\", Blank Schedule Type Limits Name input -- will not be validated.\n   ** Warning ** ProcessScheduleInput: Schedule:Year=\"SCHEDULE RULESET 41\", Blank Schedule Type Limits Name input -- will not be validated.\n   ** Warning ** ProcessScheduleInput: Schedule:Year=\"SCHEDULE RULESET 42\", Blank Schedule Type Limits Name input -- will not be validated.\n   ** Warning ** ProcessScheduleInput: Schedule:Year=\"SCHEDULE RULESET 43\", Blank Schedule Type Limits Name input -- will not be validated.\n   ** Warning ** ProcessScheduleInput: Schedule:Year=\"SCHEDULE RULESET 44\", Blank Schedule Type Limits Name input -- will not be validated.\n   ** Warning ** ProcessScheduleInput: Schedule:Year=\"SCHEDULE RULESET 45\", Blank Schedule Type Limits Name input -- will not be validated.\n   ** Warning ** ProcessScheduleInput: Schedule:Year=\"SCHEDULE RULESET 46\", Blank Schedule Type Limits Name input -- will not be validated.\n   ** Warning ** ProcessScheduleInput: Schedule:Year=\"SCHEDULE RULESET 47\", Blank Schedule Type Limits Name input -- will not be validated.\n   ** Warning ** ProcessScheduleInput: Schedule:Year=\"SCHEDULE RULESET 5\", Blank Schedule Type Limits Name input -- will not be validated.\n   ** Warning ** ProcessScheduleInput: Schedule:Year=\"SCHEDULE RULESET 6\", Blank Schedule Type Limits Name input -- will not be validated.\n   ** Warning ** ProcessScheduleInput: Schedule:Year=\"SCHEDULE RULESET 7\", Blank Schedule Type Limits Name input -- will not be validated.\n   ** Warning ** ProcessScheduleInput: Schedule:Year=\"SCHEDULE RULESET 8\", Blank Schedule Type Limits Name input -- will not be validated.\n   ** Warning ** ProcessScheduleInput: Schedule:Year=\"SCHEDULE RULESET 9\", Blank Schedule Type Limits Name input -- will not be validated.\n   ** Warning ** ProcessScheduleInput: Schedule:Constant=\"ALWAYS ON CONTINUOUS\", Blank Schedule Type Limits Name input -- will not be validated.\n   ** Warning ** CheckUsedConstructions: There are 15 nominally unused constructions in input.\n   **   ~~~   ** For explicit details on each unused construction, use Output:Diagnostics,DisplayExtraWarnings;\n   ************* Beginning System Sizing Calculations\n   ** Warning ** Since Zone Minimum Air Flow Input Method = CONSTANT, input for Fixed Minimum Air Flow Rate will be ignored.\n   **   ~~~   ** Occurs in AirTerminal:SingleDuct:VAV:Reheat = AIR TERMINAL SINGLE DUCT VAV REHEAT 1\n   ** Warning ** Since Damper Heating Action = NORMAL, input for Maximum Flow Fraction During Reheat will be ignored.\n   **   ~~~   ** Occurs in AirTerminal:SingleDuct:VAV:Reheat = AIR TERMINAL SINGLE DUCT VAV REHEAT 1\n   ** Warning ** Since Zone Minimum Air Flow Input Method = CONSTANT, input for Fixed Minimum Air Flow Rate will be ignored.\n   **   ~~~   ** Occurs in AirTerminal:SingleDuct:VAV:Reheat = AIR TERMINAL SINGLE DUCT VAV REHEAT 6\n   ** Warning ** Since Damper Heating Action = NORMAL, input for Maximum Flow Fraction During Reheat will be ignored.\n   **   ~~~   ** Occurs in AirTerminal:SingleDuct:VAV:Reheat = AIR TERMINAL SINGLE DUCT VAV REHEAT 6\n   ** Warning ** Since Zone Minimum Air Flow Input Method = CONSTANT, input for Fixed Minimum Air Flow Rate will be ignored.\n   **   ~~~   ** Occurs in AirTerminal:SingleDuct:VAV:Reheat = AIR TERMINAL SINGLE DUCT VAV REHEAT 11\n   ** Warning ** Since Damper Heating Action = NORMAL, input for Maximum Flow Fraction During Reheat will be ignored.\n   **   ~~~   ** Occurs in AirTerminal:SingleDuct:VAV:Reheat = AIR TERMINAL SINGLE DUCT VAV REHEAT 11\n   ** Warning ** Since Zone Minimum Air Flow Input Method = CONSTANT, input for Fixed Minimum Air Flow Rate will be ignored.\n   **   ~~~   ** Occurs in AirTerminal:SingleDuct:VAV:Reheat = AIR TERMINAL SINGLE DUCT VAV REHEAT 2\n   ** Warning ** Since Damper Heating Action = NORMAL, input for Maximum Flow Fraction During Reheat will be ignored.\n   **   ~~~   ** Occurs in AirTerminal:SingleDuct:VAV:Reheat = AIR TERMINAL SINGLE DUCT VAV REHEAT 2\n   ** Warning ** Since Zone Minimum Air Flow Input Method = CONSTANT, input for Fixed Minimum Air Flow Rate will be ignored.\n   **   ~~~   ** Occurs in AirTerminal:SingleDuct:VAV:Reheat = AIR TERMINAL SINGLE DUCT VAV REHEAT 3\n   ** Warning ** Since Damper Heating Action = NORMAL, input for Maximum Flow Fraction During Reheat will be ignored.\n   **   ~~~   ** Occurs in AirTerminal:SingleDuct:VAV:Reheat = AIR TERMINAL SINGLE DUCT VAV REHEAT 3\n   ** Warning ** Since Zone Minimum Air Flow Input Method = CONSTANT, input for Fixed Minimum Air Flow Rate will be ignored.\n   **   ~~~   ** Occurs in AirTerminal:SingleDuct:VAV:Reheat = AIR TERMINAL SINGLE DUCT VAV REHEAT 4\n   ** Warning ** Since Damper Heating Action = NORMAL, input for Maximum Flow Fraction During Reheat will be ignored.\n   **   ~~~   ** Occurs in AirTerminal:SingleDuct:VAV:Reheat = AIR TERMINAL SINGLE DUCT VAV REHEAT 4\n   ** Warning ** Since Zone Minimum Air Flow Input Method = CONSTANT, input for Fixed Minimum Air Flow Rate will be ignored.\n   **   ~~~   ** Occurs in AirTerminal:SingleDuct:VAV:Reheat = AIR TERMINAL SINGLE DUCT VAV REHEAT 5\n   ** Warning ** Since Damper Heating Action = NORMAL, input for Maximum Flow Fraction During Reheat will be ignored.\n   **   ~~~   ** Occurs in AirTerminal:SingleDuct:VAV:Reheat = AIR TERMINAL SINGLE DUCT VAV REHEAT 5\n   ** Warning ** Since Zone Minimum Air Flow Input Method = CONSTANT, input for Fixed Minimum Air Flow Rate will be ignored.\n   **   ~~~   ** Occurs in AirTerminal:SingleDuct:VAV:Reheat = AIR TERMINAL SINGLE DUCT VAV REHEAT 7\n   ** Warning ** Since Damper Heating Action = NORMAL, input for Maximum Flow Fraction During Reheat will be ignored.\n   **   ~~~   ** Occurs in AirTerminal:SingleDuct:VAV:Reheat = AIR TERMINAL SINGLE DUCT VAV REHEAT 7\n   ** Warning ** Since Zone Minimum Air Flow Input Method = CONSTANT, input for Fixed Minimum Air Flow Rate will be ignored.\n   **   ~~~   ** Occurs in AirTerminal:SingleDuct:VAV:Reheat = AIR TERMINAL SINGLE DUCT VAV REHEAT 8\n   ** Warning ** Since Damper Heating Action = NORMAL, input for Maximum Flow Fraction During Reheat will be ignored.\n   **   ~~~   ** Occurs in AirTerminal:SingleDuct:VAV:Reheat = AIR TERMINAL SINGLE DUCT VAV REHEAT 8\n   ** Warning ** Since Zone Minimum Air Flow Input Method = CONSTANT, input for Fixed Minimum Air Flow Rate will be ignored.\n   **   ~~~   ** Occurs in AirTerminal:SingleDuct:VAV:Reheat = AIR TERMINAL SINGLE DUCT VAV REHEAT 9\n   ** Warning ** Since Damper Heating Action = NORMAL, input for Maximum Flow Fraction During Reheat will be ignored.\n   **   ~~~   ** Occurs in AirTerminal:SingleDuct:VAV:Reheat = AIR TERMINAL SINGLE DUCT VAV REHEAT 9\n   ** Warning ** Since Zone Minimum Air Flow Input Method = CONSTANT, input for Fixed Minimum Air Flow Rate will be ignored.\n   **   ~~~   ** Occurs in AirTerminal:SingleDuct:VAV:Reheat = AIR TERMINAL SINGLE DUCT VAV REHEAT 10\n   ** Warning ** Since Damper Heating Action = NORMAL, input for Maximum Flow Fraction During Reheat will be ignored.\n   **   ~~~   ** Occurs in AirTerminal:SingleDuct:VAV:Reheat = AIR TERMINAL SINGLE DUCT VAV REHEAT 10\n   ** Warning ** Since Zone Minimum Air Flow Input Method = CONSTANT, input for Fixed Minimum Air Flow Rate will be ignored.\n   **   ~~~   ** Occurs in AirTerminal:SingleDuct:VAV:Reheat = AIR TERMINAL SINGLE DUCT VAV REHEAT 12\n   ** Warning ** Since Damper Heating Action = NORMAL, input for Maximum Flow Fraction During Reheat will be ignored.\n   **   ~~~   ** Occurs in AirTerminal:SingleDuct:VAV:Reheat = AIR TERMINAL SINGLE DUCT VAV REHEAT 12\n   ** Warning ** Since Zone Minimum Air Flow Input Method = CONSTANT, input for Fixed Minimum Air Flow Rate will be ignored.\n   **   ~~~   ** Occurs in AirTerminal:SingleDuct:VAV:Reheat = AIR TERMINAL SINGLE DUCT VAV REHEAT 13\n   ** Warning ** Since Damper Heating Action = NORMAL, input for Maximum Flow Fraction During Reheat will be ignored.\n   **   ~~~   ** Occurs in AirTerminal:SingleDuct:VAV:Reheat = AIR TERMINAL SINGLE DUCT VAV REHEAT 13\n   ** Warning ** Since Zone Minimum Air Flow Input Method = CONSTANT, input for Fixed Minimum Air Flow Rate will be ignored.\n   **   ~~~   ** Occurs in AirTerminal:SingleDuct:VAV:Reheat = AIR TERMINAL SINGLE DUCT VAV REHEAT 14\n   ** Warning ** Since Damper Heating Action = NORMAL, input for Maximum Flow Fraction During Reheat will be ignored.\n   **   ~~~   ** Occurs in AirTerminal:SingleDuct:VAV:Reheat = AIR TERMINAL SINGLE DUCT VAV REHEAT 14\n   ** Warning ** Since Zone Minimum Air Flow Input Method = CONSTANT, input for Fixed Minimum Air Flow Rate will be ignored.\n   **   ~~~   ** Occurs in AirTerminal:SingleDuct:VAV:Reheat = AIR TERMINAL SINGLE DUCT VAV REHEAT 15\n   ** Warning ** Since Damper Heating Action = NORMAL, input for Maximum Flow Fraction During Reheat will be ignored.\n   **   ~~~   ** Occurs in AirTerminal:SingleDuct:VAV:Reheat = AIR TERMINAL SINGLE DUCT VAV REHEAT 15\n   ************* Beginning Plant Sizing Calculations\n   ** Warning ** GetVarSpeedCoilInput: COIL:HEATING:DX:VARIABLESPEED=\"SYS_6_VAV WITH REHEAT CCASHP DX HTG COIL\", \n   **   ~~~   ** ...Minimum Outdoor Dry-Bulb Temperature for Compressor Operation = 0.0 for defrost control = TIMED.\n   ** Warning ** GetVarSpeedCoilInput: COIL:HEATING:DX:VARIABLESPEED=\"SYS_6_VAV WITH REHEAT 1 CCASHP DX HTG COIL\", \n   **   ~~~   ** ...Minimum Outdoor Dry-Bulb Temperature for Compressor Operation = 0.0 for defrost control = TIMED.\n   ** Warning ** GetVarSpeedCoilInput: COIL:HEATING:DX:VARIABLESPEED=\"SYS_6_VAV WITH REHEAT 2 CCASHP DX HTG COIL\", \n   **   ~~~   ** ...Minimum Outdoor Dry-Bulb Temperature for Compressor Operation = 0.0 for defrost control = TIMED.\n   ** Warning ** SizePlantLoop: Calculated Plant Sizing Design Volume Flow Rate=[0.00] is too small. Set to 0.0\n   **   ~~~   ** ..occurs for PlantLoop=HOT WATER LOOP\n   ** Warning ** SizePump: Calculated Pump Nominal Volume Flow Rate=[0.00] is too small. Set to 0.0\n   **   ~~~   ** ..occurs for Pump=PUMP VARIABLE SPEED 1\n   ** Warning ** Check input. Pump nominal power or motor efficiency is set to 0, for pump=PUMP VARIABLE SPEED 1\n   ** Warning ** Check input. Pump nominal flow rate is set or calculated = 0, for pump=PUMP VARIABLE SPEED 1\n   ** Warning ** Missing temperature setpoint for LeavingSetpointModulated mode Boiler named PRIMARY BOILER 1497KBTU/HR 0.83 THERMAL EFF\n   **   ~~~   **   A temperature setpoint is needed at the outlet node of a boiler in variable flow mode, use a SetpointManager\n   **   ~~~   **   The overall loop setpoint will be assumed for Boiler. The simulation continues ... \n   ** Warning ** Output:Meter: invalid Key Name=\"DISTRICTCOOLING:FACILITY\" - not found.\n   ** Warning ** Output:Meter: invalid Key Name=\"DISTRICTHEATING:FACILITY\" - not found.\n   ** Warning ** Output:Meter:MeterFileOnly requested for \"Electricity:Facility\" (TimeStep), already on \"Output:Meter\". Will report to both eplusout.eso and eplusout.mtr\n   ************* Testing Individual Branch Integrity\n   ************* All Branches passed integrity testing\n   ************* Testing Individual Supply Air Path Integrity\n   ************* All Supply Air Paths passed integrity testing\n   ************* Testing Individual Return Air Path Integrity\n   ************* All Return Air Paths passed integrity testing\n   ** Warning ** Potential Node Connection Error for object ZONEHVAC:BASEBOARD:CONVECTIVE:WATER, name=ZONE HVAC BASEBOARD CONVECTIVE WATER 1\n   **   ~~~   **   Node Types are still UNDEFINED -- See Branch/Node Details file for further information\n   **   ~~~   **   Inlet Node : NODE 76\n   **   ~~~   **   Outlet Node: NODE 77\n   ** Warning ** Potential Node Connection Error for object ZONEHVAC:BASEBOARD:CONVECTIVE:WATER, name=ZONE HVAC BASEBOARD CONVECTIVE WATER 2\n   **   ~~~   **   Node Types are still UNDEFINED -- See Branch/Node Details file for further information\n   **   ~~~   **   Inlet Node : NODE 83\n   **   ~~~   **   Outlet Node: NODE 84\n   ** Warning ** Potential Node Connection Error for object ZONEHVAC:BASEBOARD:CONVECTIVE:WATER, name=ZONE HVAC BASEBOARD CONVECTIVE WATER 3\n   **   ~~~   **   Node Types are still UNDEFINED -- See Branch/Node Details file for further information\n   **   ~~~   **   Inlet Node : NODE 90\n   **   ~~~   **   Outlet Node: NODE 91\n   ** Warning ** Potential Node Connection Error for object ZONEHVAC:BASEBOARD:CONVECTIVE:WATER, name=ZONE HVAC BASEBOARD CONVECTIVE WATER 4\n   **   ~~~   **   Node Types are still UNDEFINED -- See Branch/Node Details file for further information\n   **   ~~~   **   Inlet Node : NODE 97\n   **   ~~~   **   Outlet Node: NODE 98\n   ** Warning ** Potential Node Connection Error for object ZONEHVAC:BASEBOARD:CONVECTIVE:WATER, name=ZONE HVAC BASEBOARD CONVECTIVE WATER 5\n   **   ~~~   **   Node Types are still UNDEFINED -- See Branch/Node Details file for further information\n   **   ~~~   **   Inlet Node : NODE 104\n   **   ~~~   **   Outlet Node: NODE 105\n   ** Warning ** Potential Node Connection Error for object ZONEHVAC:BASEBOARD:CONVECTIVE:WATER, name=ZONE HVAC BASEBOARD CONVECTIVE WATER 6\n   **   ~~~   **   Node Types are still UNDEFINED -- See Branch/Node Details file for further information\n   **   ~~~   **   Inlet Node : NODE 125\n   **   ~~~   **   Outlet Node: NODE 126\n   ** Warning ** Potential Node Connection Error for object ZONEHVAC:BASEBOARD:CONVECTIVE:WATER, name=ZONE HVAC BASEBOARD CONVECTIVE WATER 7\n   **   ~~~   **   Node Types are still UNDEFINED -- See Branch/Node Details file for further information\n   **   ~~~   **   Inlet Node : NODE 132\n   **   ~~~   **   Outlet Node: NODE 133\n   ** Warning ** Potential Node Connection Error for object ZONEHVAC:BASEBOARD:CONVECTIVE:WATER, name=ZONE HVAC BASEBOARD CONVECTIVE WATER 8\n   **   ~~~   **   Node Types are still UNDEFINED -- See Branch/Node Details file for further information\n   **   ~~~   **   Inlet Node : NODE 139\n   **   ~~~   **   Outlet Node: NODE 140\n   ** Warning ** Potential Node Connection Error for object ZONEHVAC:BASEBOARD:CONVECTIVE:WATER, name=ZONE HVAC BASEBOARD CONVECTIVE WATER 9\n   **   ~~~   **   Node Types are still UNDEFINED -- See Branch/Node Details file for further information\n   **   ~~~   **   Inlet Node : NODE 146\n   **   ~~~   **   Outlet Node: NODE 147\n   ** Warning ** Potential Node Connection Error for object ZONEHVAC:BASEBOARD:CONVECTIVE:WATER, name=ZONE HVAC BASEBOARD CONVECTIVE WATER 10\n   **   ~~~   **   Node Types are still UNDEFINED -- See Branch/Node Details file for further information\n   **   ~~~   **   Inlet Node : NODE 153\n   **   ~~~   **   Outlet Node: NODE 154\n   ** Warning ** Potential Node Connection Error for object ZONEHVAC:BASEBOARD:CONVECTIVE:WATER, name=ZONE HVAC BASEBOARD CONVECTIVE WATER 11\n   **   ~~~   **   Node Types are still UNDEFINED -- See Branch/Node Details file for further information\n   **   ~~~   **   Inlet Node : NODE 174\n   **   ~~~   **   Outlet Node: NODE 175\n   ** Warning ** Potential Node Connection Error for object ZONEHVAC:BASEBOARD:CONVECTIVE:WATER, name=ZONE HVAC BASEBOARD CONVECTIVE WATER 12\n   **   ~~~   **   Node Types are still UNDEFINED -- See Branch/Node Details file for further information\n   **   ~~~   **   Inlet Node : NODE 181\n   **   ~~~   **   Outlet Node: NODE 182\n   ** Warning ** Potential Node Connection Error for object ZONEHVAC:BASEBOARD:CONVECTIVE:WATER, name=ZONE HVAC BASEBOARD CONVECTIVE WATER 13\n   **   ~~~   **   Node Types are still UNDEFINED -- See Branch/Node Details file for further information\n   **   ~~~   **   Inlet Node : NODE 188\n   **   ~~~   **   Outlet Node: NODE 189\n   ** Warning ** Potential Node Connection Error for object ZONEHVAC:BASEBOARD:CONVECTIVE:WATER, name=ZONE HVAC BASEBOARD CONVECTIVE WATER 14\n   **   ~~~   **   Node Types are still UNDEFINED -- See Branch/Node Details file for further information\n   **   ~~~   **   Inlet Node : NODE 195\n   **   ~~~   **   Outlet Node: NODE 196\n   ** Warning ** Potential Node Connection Error for object ZONEHVAC:BASEBOARD:CONVECTIVE:WATER, name=ZONE HVAC BASEBOARD CONVECTIVE WATER 15\n   **   ~~~   **   Node Types are still UNDEFINED -- See Branch/Node Details file for further information\n   **   ~~~   **   Inlet Node : NODE 202\n   **   ~~~   **   Outlet Node: NODE 203\n   ************* There were 15 node connection errors noted.\n   ************* Beginning Simulation\n   ** Warning ** Processing Monthly Tabular Reports: Variable names not valid for this simulation\n   **   ~~~   ** ...use Output:Diagnostics,DisplayExtraWarnings; to show more details on individual variables.\n   ** Warning ** GetInputEconomicsTariff: UtilityCost:Tariff=\"NONEOIL\" missing meter\n   **   ~~~   ** Meter referenced is not present due to a lack of equipment that uses that energy source/meter:\"FUELOIL#2:FACILITY\".\n   ** Warning ** The resource referenced by LifeCycleCost:UsePriceEscalation= \"U.S. AVG  COMMERCIAL-DISTILLATE OIL\" has no energy cost. \n   **   ~~~   ** ... It is likely that the wrong resource is used. The resource should match the meter used in Utility:Tariff.\n   ** Warning ** The resource referenced by LifeCycleCost:UsePriceEscalation= \"U.S. AVG  COMMERCIAL-RESIDUAL OIL\" has no energy cost. \n   **   ~~~   ** ... It is likely that the wrong resource is used. The resource should match the meter used in Utility:Tariff.\n   ** Warning ** The resource referenced by LifeCycleCost:UsePriceEscalation= \"U.S. AVG  COMMERCIAL-COAL\" has no energy cost. \n   **   ~~~   ** ... It is likely that the wrong resource is used. The resource should match the meter used in Utility:Tariff.\n   ************* Simulation Error Summary *************\n   ** Severe  ** Orphaned ZoneHVAC object found.  This was object never referenced in the input, and was not used.\n   **   ~~~   **  -- Object type: ZoneHVAC:Baseboard:Convective:Water\n   **   ~~~   **  -- Object name: Zone HVAC Baseboard Convective Water 1\n   ** Severe  ** Orphaned ZoneHVAC object found.  This was object never referenced in the input, and was not used.\n   **   ~~~   **  -- Object type: ZoneHVAC:Baseboard:Convective:Water\n   **   ~~~   **  -- Object name: Zone HVAC Baseboard Convective Water 2\n   ** Severe  ** Orphaned ZoneHVAC object found.  This was object never referenced in the input, and was not used.\n   **   ~~~   **  -- Object type: ZoneHVAC:Baseboard:Convective:Water\n   **   ~~~   **  -- Object name: Zone HVAC Baseboard Convective Water 3\n   ** Severe  ** Orphaned ZoneHVAC object found.  This was object never referenced in the input, and was not used.\n   **   ~~~   **  -- Object type: ZoneHVAC:Baseboard:Convective:Water\n   **   ~~~   **  -- Object name: Zone HVAC Baseboard Convective Water 4\n   ** Severe  ** Orphaned ZoneHVAC object found.  This was object never referenced in the input, and was not used.\n   **   ~~~   **  -- Object type: ZoneHVAC:Baseboard:Convective:Water\n   **   ~~~   **  -- Object name: Zone HVAC Baseboard Convective Water 5\n   ** Severe  ** Orphaned ZoneHVAC object found.  This was object never referenced in the input, and was not used.\n   **   ~~~   **  -- Object type: ZoneHVAC:Baseboard:Convective:Water\n   **   ~~~   **  -- Object name: Zone HVAC Baseboard Convective Water 6\n   ** Severe  ** Orphaned ZoneHVAC object found.  This was object never referenced in the input, and was not used.\n   **   ~~~   **  -- Object type: ZoneHVAC:Baseboard:Convective:Water\n   **   ~~~   **  -- Object name: Zone HVAC Baseboard Convective Water 7\n   ** Severe  ** Orphaned ZoneHVAC object found.  This was object never referenced in the input, and was not used.\n   **   ~~~   **  -- Object type: ZoneHVAC:Baseboard:Convective:Water\n   **   ~~~   **  -- Object name: Zone HVAC Baseboard Convective Water 8\n   ** Severe  ** Orphaned ZoneHVAC object found.  This was object never referenced in the input, and was not used.\n   **   ~~~   **  -- Object type: ZoneHVAC:Baseboard:Convective:Water\n   **   ~~~   **  -- Object name: Zone HVAC Baseboard Convective Water 9\n   ** Severe  ** Orphaned ZoneHVAC object found.  This was object never referenced in the input, and was not used.\n   **   ~~~   **  -- Object type: ZoneHVAC:Baseboard:Convective:Water\n   **   ~~~   **  -- Object name: Zone HVAC Baseboard Convective Water 10\n   ** Severe  ** Orphaned ZoneHVAC object found.  This was object never referenced in the input, and was not used.\n   **   ~~~   **  -- Object type: ZoneHVAC:Baseboard:Convective:Water\n   **   ~~~   **  -- Object name: Zone HVAC Baseboard Convective Water 11\n   ** Severe  ** Orphaned ZoneHVAC object found.  This was object never referenced in the input, and was not used.\n   **   ~~~   **  -- Object type: ZoneHVAC:Baseboard:Convective:Water\n   **   ~~~   **  -- Object name: Zone HVAC Baseboard Convective Water 12\n   ** Severe  ** Orphaned ZoneHVAC object found.  This was object never referenced in the input, and was not used.\n   **   ~~~   **  -- Object type: ZoneHVAC:Baseboard:Convective:Water\n   **   ~~~   **  -- Object name: Zone HVAC Baseboard Convective Water 13\n   ** Severe  ** Orphaned ZoneHVAC object found.  This was object never referenced in the input, and was not used.\n   **   ~~~   **  -- Object type: ZoneHVAC:Baseboard:Convective:Water\n   **   ~~~   **  -- Object name: Zone HVAC Baseboard Convective Water 14\n   ** Severe  ** Orphaned ZoneHVAC object found.  This was object never referenced in the input, and was not used.\n   **   ~~~   **  -- Object type: ZoneHVAC:Baseboard:Convective:Water\n   **   ~~~   **  -- Object name: Zone HVAC Baseboard Convective Water 15\n   ************* There are 15 unused objects in input.\n   ************* Use Output:Diagnostics,DisplayUnusedObjects; to see them.\n   ************* There are 11 unused schedules in input.\n   ************* There are 11 unused week schedules in input.\n   ************* There are 32 unused day schedules in input.\n   ************* Use Output:Diagnostics,DisplayUnusedSchedules; to see them.\n   *************\n   ************* ===== Final Error Summary =====\n   ************* The following error categories occurred.  Consider correcting or noting.\n   ************* Node Connection Errors\n   ************* ..Node connection errors are often caused by spelling mistakes in a node name field.\n   ************* ..To track down the problem, search the idf file for each node name listed to see if it\n   ************* ..occurs in the expected input fields.\n   ************* Nominally Unused Constructions\n   ************* ..The nominally unused constructions warning is provided to alert you to potential conditions that can cause\n   ************* ..extra time during simulation. Each construction is calculated by the algorithm indicated in the HeatBalanceAlgorithm\n   ************* ..object. You may remove the constructions indicated (when you use the DisplayExtraWarnings option).\n   *************\n   ************* EnergyPlus Warmup Error Summary. During Warmup: 0 Warning; 0 Severe Errors.\n   ************* EnergyPlus Sizing Error Summary. During Sizing: 132 Warning; 0 Severe Errors.\n   ************* EnergyPlus Completed Successfully-- 163 Warning; 15 Severe Errors; Elapsed Time=00hr 01min  5.28sec\n",
   "file_format_version" : "0.0.1",
   "file_paths" : [ "../weather", "../seeds", "../seed" ],
   "hash" : "1455507D",
   "measure_paths" : [ "../measures" ],
   "name" : "DOE Autogenerated 37",
   "osa_id" : "68c8b576-a9a1-447a-a2db-fd41b0db3a06",
   "osd_id" : "51312cb6-8bc3-4fed-a5dc-412ea0447bb7",
   "run_directory" : "./run",
   "seed_file" : "dummy.osm",
   "started_at" : "20190517T152219Z",
   "steps" : [
      {
         "arguments" : {
            "building_type" : "MediumOffice",
            "epw_file" : "CAN_ON_Ottawa-Macdonald-Cartier.Intl.AP.716280_CWEC2016.epw",
            "new_auto_zoner" : true,
            "template" : "NECB2017"
         },
         "description" : "This measure creates an NECB prototype building from scratch and uses it as the base for an analysis.",
         "measure_dir_name" : "btap_create_necb_prototype_building",
         "name" : "btap_create_necb_prototype_building",
         "result" : {
            "completed_at" : "20190517T152350Z",
            "measure_class_name" : "BTAPCreateNECBPrototypeBuilding",
            "measure_display_name" : "BTAPCreateNECBPrototypeBuilding",
            "measure_name" : "btap_create_necb_prototype_building",
            "measure_taxonomy" : "Whole Building.Space Types",
            "measure_type" : "ModelMeasure",
            "measure_uid" : "3e9acd53-8602-4749-a655-7cbbe48e8b30",
            "measure_version_id" : "fce385ec-90b4-4b1d-9950-ad7bead32503",
            "measure_version_modified" : "20190401T145206Z",
            "measure_xml_checksum" : "2C38F48B",
            "started_at" : "20190517T152219Z",
            "stderr" : "",
            "stdout" : "[OpenStudio.Measure] <0> OSArgumentVector is deprecated, use OpenStudio::Measure::OSArgumentVector instead.\n[openstudio.EpwFile] <0> Successive data points (2011-Jan-31 to 2001-Feb-01, ending on line 753) are greater than 1 day apart in EPW file '/usr/local/lib/ruby/gems/2.2.0/bundler/gems/openstudio-standards-f0e9e7df79cf/data/weather/CAN_ON_Ottawa-Macdonald-Cartier.Intl.AP.716280_CWEC2016.epw'. Data will be treated as typical (TMY)\n[openstudio.setFileExtension] <0> Path p, '/usr/local/lib/ruby/gems/2.2.0/bundler/gems/openstudio-standards-f0e9e7df79cf/data/weather/CAN_ON_Ottawa-Macdonald-Cartier.Intl.AP.716280_CWEC2016.ddy', has an unexpected file extension. Was expecting 'idf'.\n[openstudio.setFileExtension] <0> Path p, '/usr/local/lib/ruby/gems/2.2.0/bundler/gems/openstudio-standards-f0e9e7df79cf/data/weather/CAN_ON_Ottawa-Macdonald-Cartier.Intl.AP.716280_CWEC2016.ddy', has an unexpected file extension. Was expecting 'idf'.\n[openstudio.EpwFile] <0> Successive data points (2011-Jan-31 to 2001-Feb-01, ending on line 753) are greater than 1 day apart in EPW file '/usr/local/lib/ruby/gems/2.2.0/bundler/gems/openstudio-standards-f0e9e7df79cf/data/weather/CAN_ON_Ottawa-Macdonald-Cartier.Intl.AP.716280_CWEC2016.epw'. Data will be treated as typical (TMY)\n[openstudio.setFileExtension] <0> Path p, '/usr/local/lib/ruby/gems/2.2.0/bundler/gems/openstudio-standards-f0e9e7df79cf/data/weather/CAN_ON_Ottawa-Macdonald-Cartier.Intl.AP.716280_CWEC2016.ddy', has an unexpected file extension. Was expecting 'idf'.\n[openstudio.weather.Model] <0> Could not find ground temperatures; will use generic temperatures, which will skew results.\n[openstudio.EpwFile] <0> Successive data points (2011-Jan-31 to 2001-Feb-01, ending on line 753) are greater than 1 day apart in EPW file '/usr/local/lib/ruby/gems/2.2.0/bundler/gems/openstudio-standards-f0e9e7df79cf/data/weather/CAN_ON_Ottawa-Macdonald-Cartier.Intl.AP.716280_CWEC2016.epw'. Data will be treated as typical (TMY)\n[openstudio.setFileExtension] <0> Path p, '/usr/local/lib/ruby/gems/2.2.0/bundler/gems/openstudio-standards-f0e9e7df79cf/data/weather/CAN_ON_Ottawa-Macdonald-Cartier.Intl.AP.716280_CWEC2016.ddy', has an unexpected file extension. Was expecting 'idf'.\n[openstudio.setFileExtension] <0> Path p, '/usr/local/lib/ruby/gems/2.2.0/bundler/gems/openstudio-standards-f0e9e7df79cf/data/weather/CAN_ON_Ottawa-Macdonald-Cartier.Intl.AP.716280_CWEC2016.ddy', has an unexpected file extension. Was expecting 'idf'.\n[openstudio.EpwFile] <0> Successive data points (2011-Jan-31 to 2001-Feb-01, ending on line 753) are greater than 1 day apart in EPW file '/usr/local/lib/ruby/gems/2.2.0/bundler/gems/openstudio-standards-f0e9e7df79cf/data/weather/CAN_ON_Ottawa-Macdonald-Cartier.Intl.AP.716280_CWEC2016.epw'. Data will be treated as typical (TMY)\n[openstudio.setFileExtension] <0> Path p, '/usr/local/lib/ruby/gems/2.2.0/bundler/gems/openstudio-standards-f0e9e7df79cf/data/weather/CAN_ON_Ottawa-Macdonald-Cartier.Intl.AP.716280_CWEC2016.ddy', has an unexpected file extension. Was expecting 'idf'.\n[openstudio.setFileExtension] <0> Path p, '/usr/local/lib/ruby/gems/2.2.0/bundler/gems/openstudio-standards-f0e9e7df79cf/data/weather/CAN_ON_Ottawa-Macdonald-Cartier.Intl.AP.716280_CWEC2016.ddy', has an unexpected file extension. Was expecting 'idf'.\n[utilities.idf.WorkspaceObject] <0> Object of type 'Schedule:Constant' and named 'Always Off Discrete', points to an object named OnOff 1 from field 1, but that object cannot be located.\n[utilities.idf.WorkspaceObject] <0> Object of type 'Schedule:Constant' and named 'Always On Continuous', points to an object named Fractional 1 from field 1, but that object cannot be located.\n[openstudio.EpwFile] <0> Successive data points (2011-Jan-31 to 2001-Feb-01, ending on line 753) are greater than 1 day apart in EPW file '/usr/local/lib/ruby/gems/2.2.0/bundler/gems/openstudio-standards-f0e9e7df79cf/data/weather/CAN_ON_Ottawa-Macdonald-Cartier.Intl.AP.716280_CWEC2016.epw'. Data will be treated as typical (TMY)\n[openstudio.setFileExtension] <0> Path p, '/usr/local/lib/ruby/gems/2.2.0/bundler/gems/openstudio-standards-f0e9e7df79cf/data/weather/CAN_ON_Ottawa-Macdonald-Cartier.Intl.AP.716280_CWEC2016.ddy', has an unexpected file extension. Was expecting 'idf'.\n[openstudio.setFileExtension] <0> Path p, '/usr/local/lib/ruby/gems/2.2.0/bundler/gems/openstudio-standards-f0e9e7df79cf/data/weather/CAN_ON_Ottawa-Macdonald-Cartier.Intl.AP.716280_CWEC2016.ddy', has an unexpected file extension. Was expecting 'idf'.\n[openstudio.model.ChillerElectricEIR] <0> Cannot set condenserType to 'WaterCooled', chiller 'Chiller Electric EIR 1' is not connected to a secondaryPlantLoop\n[openstudio.model.ChillerElectricEIR] <0> Cannot set condenserType to 'WaterCooled', chiller 'Chiller Electric EIR 2' is not connected to a secondaryPlantLoop\n[openstudio.EpwFile] <0> Successive data points (2011-Jan-31 to 2001-Feb-01, ending on line 753) are greater than 1 day apart in EPW file '/usr/local/lib/ruby/gems/2.2.0/bundler/gems/openstudio-standards-f0e9e7df79cf/data/weather/CAN_ON_Ottawa-Macdonald-Cartier.Intl.AP.716280_CWEC2016.epw'. Data will be treated as typical (TMY)\n[openstudio.setFileExtension] <0> Path p, '/usr/local/lib/ruby/gems/2.2.0/bundler/gems/openstudio-standards-f0e9e7df79cf/data/weather/CAN_ON_Ottawa-Macdonald-Cartier.Intl.AP.716280_CWEC2016.ddy', has an unexpected file extension. Was expecting 'idf'.\n[openstudio.setFileExtension] <0> Path p, '/usr/local/lib/ruby/gems/2.2.0/bundler/gems/openstudio-standards-f0e9e7df79cf/data/weather/CAN_ON_Ottawa-Macdonald-Cartier.Intl.AP.716280_CWEC2016.ddy', has an unexpected file extension. Was expecting 'idf'.\n[utilities.idf.WorkspaceObject] <0> Object of type 'Schedule:Constant' and named 'Always Off Discrete', points to an object named OnOff 1 from field 1, but that object cannot be located.\n[utilities.idf.WorkspaceObject] <0> Object of type 'Schedule:Constant' and named 'Always On Continuous', points to an object named Fractional 1 from field 1, but that object cannot be located.\n[openstudio.standards.Fan] <0> For Sys6 Return Fan, there is no greater nominal HP.  Use the efficiency of the largest motor category.\n[openstudio.standards.Fan] <0> For Sys6 Return Fan 1, there is no greater nominal HP.  Use the efficiency of the largest motor category.\n[openstudio.standards.Fan] <0> For Sys6 Return Fan 2, there is no greater nominal HP.  Use the efficiency of the largest motor category.\n[openstudio.standards.Fan] <0> For Sys6 Supply Fan, there is no greater nominal HP.  Use the efficiency of the largest motor category.\n[openstudio.standards.Fan] <0> For Sys6 Supply Fan 1, there is no greater nominal HP.  Use the efficiency of the largest motor category.\n[openstudio.standards.Fan] <0> For Sys6 Supply Fan 2, there is no greater nominal HP.  Use the efficiency of the largest motor category.\n[openstudio.EpwFile] <0> Successive data points (2011-Jan-31 to 2001-Feb-01, ending on line 753) are greater than 1 day apart in EPW file '/usr/local/lib/ruby/gems/2.2.0/bundler/gems/openstudio-standards-f0e9e7df79cf/data/weather/CAN_ON_Ottawa-Macdonald-Cartier.Intl.AP.716280_CWEC2016.epw'. Data will be treated as typical (TMY)\n[openstudio.setFileExtension] <0> Path p, '/usr/local/lib/ruby/gems/2.2.0/bundler/gems/openstudio-standards-f0e9e7df79cf/data/weather/CAN_ON_Ottawa-Macdonald-Cartier.Intl.AP.716280_CWEC2016.ddy', has an unexpected file extension. Was expecting 'idf'.\n[openstudio.setFileExtension] <0> Path p, '/usr/local/lib/ruby/gems/2.2.0/bundler/gems/openstudio-standards-f0e9e7df79cf/data/weather/CAN_ON_Ottawa-Macdonald-Cartier.Intl.AP.716280_CWEC2016.ddy', has an unexpected file extension. Was expecting 'idf'.\n[openstudio.EpwFile] <0> Successive data points (2011-Jan-31 to 2001-Feb-01, ending on line 753) are greater than 1 day apart in EPW file '/usr/local/lib/ruby/gems/2.2.0/bundler/gems/openstudio-standards-f0e9e7df79cf/data/weather/CAN_ON_Ottawa-Macdonald-Cartier.Intl.AP.716280_CWEC2016.epw'. Data will be treated as typical (TMY)\n[openstudio.setFileExtension] <0> Path p, '/usr/local/lib/ruby/gems/2.2.0/bundler/gems/openstudio-standards-f0e9e7df79cf/data/weather/CAN_ON_Ottawa-Macdonald-Cartier.Intl.AP.716280_CWEC2016.ddy', has an unexpected file extension. Was expecting 'idf'.\n[openstudio.setFileExtension] <0> Path p, '/usr/local/lib/ruby/gems/2.2.0/bundler/gems/openstudio-standards-f0e9e7df79cf/data/weather/CAN_ON_Ottawa-Macdonald-Cartier.Intl.AP.716280_CWEC2016.ddy', has an unexpected file extension. Was expecting 'idf'.\n[openstudio.EpwFile] <0> Successive data points (2011-Jan-31 to 2001-Feb-01, ending on line 753) are greater than 1 day apart in EPW file '/usr/local/lib/ruby/gems/2.2.0/bundler/gems/openstudio-standards-f0e9e7df79cf/data/weather/CAN_ON_Ottawa-Macdonald-Cartier.Intl.AP.716280_CWEC2016.epw'. Data will be treated as typical (TMY)\n[openstudio.setFileExtension] <0> Path p, '/usr/local/lib/ruby/gems/2.2.0/bundler/gems/openstudio-standards-f0e9e7df79cf/data/weather/CAN_ON_Ottawa-Macdonald-Cartier.Intl.AP.716280_CWEC2016.ddy', has an unexpected file extension. Was expecting 'idf'.\n[openstudio.setFileExtension] <0> Path p, '/usr/local/lib/ruby/gems/2.2.0/bundler/gems/openstudio-standards-f0e9e7df79cf/data/weather/CAN_ON_Ottawa-Macdonald-Cartier.Intl.AP.716280_CWEC2016.ddy', has an unexpected file extension. Was expecting 'idf'.\n[openstudio.standards.Fan] <0> For Sys6 Return Fan, there is no greater nominal HP.  Use the efficiency of the largest motor category.\n[openstudio.standards.Fan] <0> For Sys6 Return Fan 1, there is no greater nominal HP.  Use the efficiency of the largest motor category.\n[openstudio.standards.Fan] <0> For Sys6 Return Fan 2, there is no greater nominal HP.  Use the efficiency of the largest motor category.\n[openstudio.standards.Fan] <0> For Sys6 Supply Fan, there is no greater nominal HP.  Use the efficiency of the largest motor category.\n[openstudio.standards.Fan] <0> For Sys6 Supply Fan 1, there is no greater nominal HP.  Use the efficiency of the largest motor category.\n[openstudio.standards.Fan] <0> For Sys6 Supply Fan 2, there is no greater nominal HP.  Use the efficiency of the largest motor category.\n[openstudio.standards.CoolingTower] <0> For Cooling Tower Single Speed 1, cannot find heat rejection properties, cannot apply standard efficiencies or curves.\n[utilities.idf.WorkspaceObject] <0> Object of type 'Schedule:Constant' and named 'Always Off Discrete', points to an object named OnOff 1 from field 1, but that object cannot be located.\n[utilities.idf.WorkspaceObject] <0> Object of type 'Schedule:Constant' and named 'Always On Continuous', points to an object named Fractional 1 from field 1, but that object cannot be located.\n",
            "step_errors" : [],
            "step_files" : [],
            "step_info" : [
               "Loaded space type map from model",
               "Finished adding geometry",
               "Started adding weather file for climate zone: NECB HDD Method.",
               "Started applying space types (loads)",
               "Space Function - undefined - had no ventilation specification, one has been created.",
               "Space Function - undefined - had no infiltration objects, one has been created.",
               "Space Function - undefined - set infiltration to 0.0 per ft^2 exterior surface area.",
               "Space Function - undefined - set infiltration schedule to Always On.",
               "Space Function Office open plan had no people, one has been created.",
               "Space Function Office open plan set occupancy to 4.646840148698885 people/1000 ft^2.",
               "Space Function Office open plan had no lights, one has been created.",
               "Space Function Office open plan set LPD to 0.80825 W/ft^2.",
               "Space Function Office open plan had no electric equipment, one has been created.",
               "Space Function Office open plan set electric EPD to 0.6970260223048327 W/ft^2.",
               "Space Function Office open plan had no ventilation specification, one has been created.",
               "Space Function Office open plan set ventilation per area to 0.083 cfm/ft^2.",
               "Space Function Office open plan had no infiltration objects, one has been created.",
               "Space Function Office open plan set infiltration to 0.0 per ft^2 exterior surface area.",
               "Space Function Office open plan set occupancy schedule to NECB-A-Occupancy.",
               "Space Function Office open plan set occupant activity schedule to NECB-Activity.",
               "Space Function Office open plan set lighting schedule to OS:Schedule:Ruleset,\n  {6fecb757-d908-47bb-ba85-de9df1d3ac36}, !- Handle\n  NECB-A-Occupancy-NECB-A-Lighting-0.2-0.1-0.67-Light Ruleset, !- Name\n  {e1f9af46-5a38-4b3a-a7af-af3562d596c5}, !- Schedule Type Limits Name\n  {56f69d58-8a1f-47cf-ba80-95131cf1cf6e}; !- Default Day Schedule Name\n\n.",
               "Space Function Office open plan set electric equipment schedule to NECB-A-Electric-Equipment.",
               "Space Function Office open plan set infiltration schedule to Always On.",
               "Space Function Office open plan set heating setpoint schedule to NECB-A-Thermostat Setpoint-Heating.",
               "Space Function Office open plan set cooling setpoint schedule to NECB-A-Thermostat Setpoint-Cooling.",
               "Finished applying space types (loads)",
               "For NECB2017, no exterior wall area was found, no infiltration will be added.",
               "For NECB2017, no exterior wall area was found, no infiltration will be added.",
               "For NECB2017, no exterior wall area was found, no infiltration will be added.",
               "Started applying constructions",
               "Finished applying constructions",
               "Started creating thermal zones",
               "Finished creating thermal zones",
               "This building has no exposed ceilings adjacent to spaces that are not attics or plenums.  No skylights will be added.",
               "Running simulation /mnt/openstudio/analysis_68c8b576-a9a1-447a-a2db-fd41b0db3a06/data_point_51312cb6-8bc3-4fed-a5dc-412ea0447bb7/run/000_btap_create_necb_prototype_building/output/MediumOffice-NECB2017-CAN_ON_Ottawa-Macdonald-Cartier.Intl.AP.716280_CWEC2016.epw/SR0.",
               "Finished run.",
               "Started Adding HVAC",
               "Finished adding HVAC",
               "Started Adding Service Water Heating",
               "Adding service water loop",
               "Adding water heater",
               "Finished adding Service Water Heating",
               "Set sizing factors to 1.3 for heating and 1.3 for cooling.",
               "Running simulation /mnt/openstudio/analysis_68c8b576-a9a1-447a-a2db-fd41b0db3a06/data_point_51312cb6-8bc3-4fed-a5dc-412ea0447bb7/run/000_btap_create_necb_prototype_building/output/MediumOffice-NECB2017-CAN_ON_Ottawa-Macdonald-Cartier.Intl.AP.716280_CWEC2016.epw/SR1.",
               "Finished run.",
               "Started applying prototype HVAC assumptions.",
               "For Sys6 Return Fan: allowed_hp = 2.81HP; motor eff = 46.15%; total fan eff = 30% based on 10522 cfm.",
               "For Sys6 Return Fan 1: allowed_hp = 2.9HP; motor eff = 46.15%; total fan eff = 30% based on 10835 cfm.",
               "For Sys6 Return Fan 2: allowed_hp = 3.06HP; motor eff = 46.15%; total fan eff = 30% based on 11463 cfm.",
               "For Sys6 Supply Fan: allowed_hp = 11.25HP; motor eff = 84.61%; total fan eff = 55% based on 10522 cfm.",
               "For Sys6 Supply Fan 1: allowed_hp = 11.58HP; motor eff = 84.61%; total fan eff = 55% based on 10835 cfm.",
               "For Sys6 Supply Fan 2: allowed_hp = 12.25HP; motor eff = 84.61%; total fan eff = 55% based on 11463 cfm.",
               "Sys_6_VAV with Reheat requires an economizer because the 'Design Supply Air Flow Rate' of 4965.744878294633 L/s exceeds the minimum air flow rate of 1500 L/s.",
               "Sys_6_VAV with Reheat requires an economizer because the total cooling capacity of 339197 Btu/hr exceeds the minimum capacity of 68243 Btu/hr.",
               "Sys_6_VAV with Reheat 1 requires an economizer because the 'Design Supply Air Flow Rate' of 5113.545594766635 L/s exceeds the minimum air flow rate of 1500 L/s.",
               "Sys_6_VAV with Reheat 1 requires an economizer because the total cooling capacity of 348512 Btu/hr exceeds the minimum capacity of 68243 Btu/hr.",
               "Sys_6_VAV with Reheat 2 requires an economizer because the 'Design Supply Air Flow Rate' of 5410.002183771508 L/s exceeds the minimum air flow rate of 1500 L/s.",
               "Sys_6_VAV with Reheat 2 requires an economizer because the total cooling capacity of 365928 Btu/hr exceeds the minimum capacity of 68243 Btu/hr.",
               "Finished applying prototype HVAC assumptions.",
               "Started applying HVAC efficiency standards.",
               "For Sys_6_VAV with Reheat ERV, ERV power is calculated to be 552 W, based on a min OA flow of 1484 cfm.",
               "For Sys_6_VAV with Reheat: VAV damper action was set to Single Maximum control.",
               "For Sys6 Return Fan: Set fan curve coefficients to reflect control type of 'Multi Zone VAV with discharge dampers'.",
               "For Sys6 Supply Fan: Set fan curve coefficients to reflect control type of 'Multi Zone VAV with discharge dampers'.",
               "For NECB2017 NECB HDD Method:  Sys_6_VAV with Reheat: DCV is not required for any system.",
               "For Sys_6_VAV with Reheat: Annual occupied hours = 2860 hr/yr, assuming a 0.15 occupancy threshold.  This schedule will be used as the HVAC operation schedule.",
               "For Sys_6_VAV with Reheat: Because the system has an economizer, it requires a motorized OA damper.",
               "For Sys_6_VAV with Reheat: Setting motorized OA damper schedule to Sys_6_VAV with Reheat Occ Sch.",
               "For Sys_6_VAV with Reheat 1 ERV, ERV power is calculated to be 552 W, based on a min OA flow of 1484 cfm.",
               "For Sys_6_VAV with Reheat 1: VAV damper action was set to Single Maximum control.",
               "For Sys6 Return Fan 1: Set fan curve coefficients to reflect control type of 'Multi Zone VAV with discharge dampers'.",
               "For Sys6 Supply Fan 1: Set fan curve coefficients to reflect control type of 'Multi Zone VAV with discharge dampers'.",
               "For NECB2017 NECB HDD Method:  Sys_6_VAV with Reheat 1: DCV is not required for any system.",
               "For Sys_6_VAV with Reheat 1: Annual occupied hours = 2860 hr/yr, assuming a 0.15 occupancy threshold.  This schedule will be used as the HVAC operation schedule.",
               "For Sys_6_VAV with Reheat 1: Because the system has an economizer, it requires a motorized OA damper.",
               "For Sys_6_VAV with Reheat 1: Setting motorized OA damper schedule to Sys_6_VAV with Reheat 1 Occ Sch.",
               "For Sys_6_VAV with Reheat 2 ERV, ERV power is calculated to be 552 W, based on a min OA flow of 1484 cfm.",
               "For Sys_6_VAV with Reheat 2: VAV damper action was set to Single Maximum control.",
               "For Sys6 Return Fan 2: Set fan curve coefficients to reflect control type of 'Multi Zone VAV with discharge dampers'.",
               "For Sys6 Supply Fan 2: Set fan curve coefficients to reflect control type of 'Multi Zone VAV with discharge dampers'.",
               "For NECB2017 NECB HDD Method:  Sys_6_VAV with Reheat 2: DCV is not required for any system.",
               "For Sys_6_VAV with Reheat 2: Annual occupied hours = 2860 hr/yr, assuming a 0.15 occupancy threshold.  This schedule will be used as the HVAC operation schedule.",
               "For Sys_6_VAV with Reheat 2: Because the system has an economizer, it requires a motorized OA damper.",
               "For Sys_6_VAV with Reheat 2: Setting motorized OA damper schedule to Sys_6_VAV with Reheat 2 Occ Sch.",
               "For Sys6 Return Fan: motor nameplate = 3HP, motor eff = 46.15%.",
               "For Sys6 Return Fan 1: motor nameplate = 3HP, motor eff = 46.15%.",
               "For Sys6 Return Fan 2: motor nameplate = 3HP, motor eff = 46.15%.",
               "For Sys6 Supply Fan: motor nameplate = 10HP, motor eff = 84.61%.",
               "For Sys6 Supply Fan 1: motor nameplate = 11HP, motor eff = 84.61%.",
               "For Sys6 Supply Fan 2: motor nameplate = 11HP, motor eff = 84.61%.",
               "For Pump Constant Speed 1: brake hp = 3.78HP, motor nameplate = 5.0HP, motor eff = 89.5%.",
               "For Pump Constant Speed 2: brake hp = 8.97HP, motor nameplate = 10.0HP, motor eff = 91.7%.",
               "For Service Water Loop Pump: brake hp = 0.02HP, motor nameplate = 0.1HP, motor eff = 70.0%.",
               "For Pump Variable Speed 1: brake hp = 2.01HP, motor nameplate = 3.0HP, motor eff = 89.5%.",
               "For NECB2017: Primary Chiller WaterCooled Scroll 88tons 0.8kW/ton: WaterCooled  Scroll Capacity = 88tons; COP = 4.5 (0.8kW/ton)",
               "For NECB2017: Secondary Chiller WaterCooled Scroll 0tons 0.8kW/ton: WaterCooled  Scroll Capacity = 0tons; COP = 4.5 (0.8kW/ton)",
               "For NECB2017: Primary Boiler: Gas Hot Water Capacity = 1497kBtu/hr; Thermal Efficiency = 0.83",
               "For NECB2017: Secondary Boiler: Gas Hot Water Capacity = 0kBtu/hr; AFUE = 0.85",
               "For NECB2017: 125gal NaturalGas Water Heater - 84kBtu/hr 0.813 Therm Eff; thermal efficiency = 0.813, skin-loss UA = 15Btu/hr",
               "For Sys_6_VAV with Reheat 2 ERV: Set sensible and latent effectiveness to 50%.",
               "For Sys_6_VAV with Reheat 1 ERV: Set sensible and latent effectiveness to 50%.",
               "For Sys_6_VAV with Reheat ERV: Set sensible and latent effectiveness to 50%.",
               "Finished applying HVAC efficiency standards.",
               "Started adding daylighting controls.",
               "For Core_bottom, daylighting control not applicable because no exterior fenestration is present.",
               "For Core_mid, daylighting control not applicable because no exterior fenestration is present.",
               "For Core_top, daylighting control not applicable because no exterior fenestration is present.",
               "For FirstFloor_Plenum, daylighting control not applicable because no exterior fenestration is present.",
               "For MidFloor_Plenum, daylighting control not applicable because no exterior fenestration is present.",
               "For TopFloor_Plenum, daylighting control not applicable because no exterior fenestration is present.",
               "Finished adding daylighting controls.",
               "Running simulation /mnt/openstudio/analysis_68c8b576-a9a1-447a-a2db-fd41b0db3a06/data_point_51312cb6-8bc3-4fed-a5dc-412ea0447bb7/run/000_btap_create_necb_prototype_building/output/MediumOffice-NECB2017-CAN_ON_Ottawa-Macdonald-Cartier.Intl.AP.716280_CWEC2016.epw/SR2.",
               "Finished run.",
               "Total Time = 90sec."
            ],
            "step_result" : "Success",
            "step_values" : [
               {
                  "name" : "building_type",
                  "value" : "MediumOffice"
               },
               {
                  "name" : "template",
                  "value" : "NECB2017"
               },
               {
                  "name" : "epw_file",
                  "value" : "CAN_ON_Ottawa-Macdonald-Cartier.Intl.AP.716280_CWEC2016.epw"
               },
               {
                  "name" : "new_auto_zoner",
                  "value" : true
               }
            ],
            "step_warnings" : [
               "[openstudio.EpwFile] Successive data points (2011-Jan-31 to 2001-Feb-01, ending on line 753) are greater than 1 day apart in EPW file '/usr/local/lib/ruby/gems/2.2.0/bundler/gems/openstudio-standards-f0e9e7df79cf/data/weather/CAN_ON_Ottawa-Macdonald-Cartier.Intl.AP.716280_CWEC2016.epw'. Data will be treated as typical (TMY)",
               "[openstudio.EpwFile] Successive data points (2011-Jan-31 to 2001-Feb-01, ending on line 753) are greater than 1 day apart in EPW file '/usr/local/lib/ruby/gems/2.2.0/bundler/gems/openstudio-standards-f0e9e7df79cf/data/weather/CAN_ON_Ottawa-Macdonald-Cartier.Intl.AP.716280_CWEC2016.epw'. Data will be treated as typical (TMY)",
               "[openstudio.weather.Model] Could not find ground temperatures; will use generic temperatures, which will skew results.",
               "[openstudio.EpwFile] Successive data points (2011-Jan-31 to 2001-Feb-01, ending on line 753) are greater than 1 day apart in EPW file '/usr/local/lib/ruby/gems/2.2.0/bundler/gems/openstudio-standards-f0e9e7df79cf/data/weather/CAN_ON_Ottawa-Macdonald-Cartier.Intl.AP.716280_CWEC2016.epw'. Data will be treated as typical (TMY)",
               "[openstudio.EpwFile] Successive data points (2011-Jan-31 to 2001-Feb-01, ending on line 753) are greater than 1 day apart in EPW file '/usr/local/lib/ruby/gems/2.2.0/bundler/gems/openstudio-standards-f0e9e7df79cf/data/weather/CAN_ON_Ottawa-Macdonald-Cartier.Intl.AP.716280_CWEC2016.epw'. Data will be treated as typical (TMY)",
               "[openstudio.EpwFile] Successive data points (2011-Jan-31 to 2001-Feb-01, ending on line 753) are greater than 1 day apart in EPW file '/usr/local/lib/ruby/gems/2.2.0/bundler/gems/openstudio-standards-f0e9e7df79cf/data/weather/CAN_ON_Ottawa-Macdonald-Cartier.Intl.AP.716280_CWEC2016.epw'. Data will be treated as typical (TMY)",
               "[openstudio.model.ChillerElectricEIR] Cannot set condenserType to 'WaterCooled', chiller 'Chiller Electric EIR 1' is not connected to a secondaryPlantLoop",
               "[openstudio.model.ChillerElectricEIR] Cannot set condenserType to 'WaterCooled', chiller 'Chiller Electric EIR 2' is not connected to a secondaryPlantLoop",
               "[openstudio.EpwFile] Successive data points (2011-Jan-31 to 2001-Feb-01, ending on line 753) are greater than 1 day apart in EPW file '/usr/local/lib/ruby/gems/2.2.0/bundler/gems/openstudio-standards-f0e9e7df79cf/data/weather/CAN_ON_Ottawa-Macdonald-Cartier.Intl.AP.716280_CWEC2016.epw'. Data will be treated as typical (TMY)",
               "[openstudio.standards.Fan] For Sys6 Return Fan, there is no greater nominal HP.  Use the efficiency of the largest motor category.",
               "[openstudio.standards.Fan] For Sys6 Return Fan 1, there is no greater nominal HP.  Use the efficiency of the largest motor category.",
               "[openstudio.standards.Fan] For Sys6 Return Fan 2, there is no greater nominal HP.  Use the efficiency of the largest motor category.",
               "[openstudio.standards.Fan] For Sys6 Supply Fan, there is no greater nominal HP.  Use the efficiency of the largest motor category.",
               "[openstudio.standards.Fan] For Sys6 Supply Fan 1, there is no greater nominal HP.  Use the efficiency of the largest motor category.",
               "[openstudio.standards.Fan] For Sys6 Supply Fan 2, there is no greater nominal HP.  Use the efficiency of the largest motor category.",
               "[openstudio.EpwFile] Successive data points (2011-Jan-31 to 2001-Feb-01, ending on line 753) are greater than 1 day apart in EPW file '/usr/local/lib/ruby/gems/2.2.0/bundler/gems/openstudio-standards-f0e9e7df79cf/data/weather/CAN_ON_Ottawa-Macdonald-Cartier.Intl.AP.716280_CWEC2016.epw'. Data will be treated as typical (TMY)",
               "[openstudio.EpwFile] Successive data points (2011-Jan-31 to 2001-Feb-01, ending on line 753) are greater than 1 day apart in EPW file '/usr/local/lib/ruby/gems/2.2.0/bundler/gems/openstudio-standards-f0e9e7df79cf/data/weather/CAN_ON_Ottawa-Macdonald-Cartier.Intl.AP.716280_CWEC2016.epw'. Data will be treated as typical (TMY)",
               "[openstudio.EpwFile] Successive data points (2011-Jan-31 to 2001-Feb-01, ending on line 753) are greater than 1 day apart in EPW file '/usr/local/lib/ruby/gems/2.2.0/bundler/gems/openstudio-standards-f0e9e7df79cf/data/weather/CAN_ON_Ottawa-Macdonald-Cartier.Intl.AP.716280_CWEC2016.epw'. Data will be treated as typical (TMY)",
               "[openstudio.standards.Fan] For Sys6 Return Fan, there is no greater nominal HP.  Use the efficiency of the largest motor category.",
               "[openstudio.standards.Fan] For Sys6 Return Fan 1, there is no greater nominal HP.  Use the efficiency of the largest motor category.",
               "[openstudio.standards.Fan] For Sys6 Return Fan 2, there is no greater nominal HP.  Use the efficiency of the largest motor category.",
               "[openstudio.standards.Fan] For Sys6 Supply Fan, there is no greater nominal HP.  Use the efficiency of the largest motor category.",
               "[openstudio.standards.Fan] For Sys6 Supply Fan 1, there is no greater nominal HP.  Use the efficiency of the largest motor category.",
               "[openstudio.standards.Fan] For Sys6 Supply Fan 2, there is no greater nominal HP.  Use the efficiency of the largest motor category.",
               "[openstudio.standards.CoolingTower] For Cooling Tower Single Speed 1, cannot find heat rejection properties, cannot apply standard efficiencies or curves."
            ]
         }
      },
      {
         "arguments" : {
            "clg_cop" : 0,
            "heat_pump_type" : "CCASHP",
            "htg_cop" : 0,
            "zone_clg_eqpt" : "Keep Existing",
            "zone_htg_eqpt" : "Electric Baseboard",
            "zone_term_reheat_eqpt" : "Electric"
         },
         "description" : "Scan all air systems amd delete existing heating and cooling coils. Then add DX heating and cooling coils and supplemental heating electric coils for an air-source heat pump. The zonal heating units can either be deleted, left as is, or replaced with electric baseboards. Zonal cooling units can either be deleted or left as is in the model.",
         "measure_dir_name" : "BTAPHeatPumpAirSystem",
         "name" : "set_heat_pump_air_system",
         "result" : {
            "completed_at" : "20190517T152410Z",
            "measure_class_name" : "SetHeatPumpAirSystem",
            "measure_display_name" : "SetHeatPumpAirSystem",
            "measure_name" : "set_heat_pump_air_system",
            "measure_taxonomy" : "HVAC.Heating",
            "measure_type" : "ModelMeasure",
            "measure_uid" : "95d36ab6-98d7-4fcb-b265-c71e7cf2e28e",
            "measure_version_id" : "05e4ea59-ded6-4b3c-8ddd-f70e82d7aa91",
            "measure_version_modified" : "20190517T150558Z",
            "measure_xml_checksum" : "470FC630",
            "started_at" : "20190517T152350Z",
            "stderr" : "",
            "stdout" : "[utilities.idf.WorkspaceObject] <0> Object of type 'Schedule:Constant' and named 'Always On Continuous', points to an object named Fractional 1 from field 1, but that object cannot be located.\n[openstudio.model.Model] <0> The run completed but had the following severe errors: Orphaned ZoneHVAC object found.  This was object never referenced in the input, and was not used.   -- Object type: ZoneHVAC:Baseboard:Convective:Water   -- Object name: Zone HVAC Baseboard Convective Water 1\\nOrphaned ZoneHVAC object found.  This was object never referenced in the input, and was not used.   -- Object type: ZoneHVAC:Baseboard:Convective:Water   -- Object name: Zone HVAC Baseboard Convective Water 2\\nOrphaned ZoneHVAC object found.  This was object never referenced in the input, and was not used.   -- Object type: ZoneHVAC:Baseboard:Convective:Water   -- Object name: Zone HVAC Baseboard Convective Water 3\\nOrphaned ZoneHVAC object found.  This was object never referenced in the input, and was not used.   -- Object type: ZoneHVAC:Baseboard:Convective:Water   -- Object name: Zone HVAC Baseboard Convective Water 4\\nOrphaned ZoneHVAC object found.  This was object never referenced in the input, and was not used.   -- Object type: ZoneHVAC:Baseboard:Convective:Water   -- Object name: Zone HVAC Baseboard Convective Water 5\\nOrphaned ZoneHVAC object found.  This was object never referenced in the input, and was not used.   -- Object type: ZoneHVAC:Baseboard:Convective:Water   -- Object name: Zone HVAC Baseboard Convective Water 6\\nOrphaned ZoneHVAC object found.  This was object never referenced in the input, and was not used.   -- Object type: ZoneHVAC:Baseboard:Convective:Water   -- Object name: Zone HVAC Baseboard Convective Water 7\\nOrphaned ZoneHVAC object found.  This was object never referenced in the input, and was not used.   -- Object type: ZoneHVAC:Baseboard:Convective:Water   -- Object name: Zone HVAC Baseboard Convective Water 8\\nOrphaned ZoneHVAC object found.  This was object never referenced in the input, and was not used.   -- Object type: ZoneHVAC:Baseboard:Convective:Water   -- Object name: Zone HVAC Baseboard Convective Water 9\\nOrphaned ZoneHVAC object found.  This was object never referenced in the input, and was not used.   -- Object type: ZoneHVAC:Baseboard:Convective:Water   -- Object name: Zone HVAC Baseboard Convective Water 10\\nOrphaned ZoneHVAC object found.  This was object never referenced in the input, and was not used.   -- Object type: ZoneHVAC:Baseboard:Convective:Water   -- Object name: Zone HVAC Baseboard Convective Water 11\\nOrphaned ZoneHVAC object found.  This was object never referenced in the input, and was not used.   -- Object type: ZoneHVAC:Baseboard:Convective:Water   -- Object name: Zone HVAC Baseboard Convective Water 12\\nOrphaned ZoneHVAC object found.  This was object never referenced in the input, and was not used.   -- Object type: ZoneHVAC:Baseboard:Convective:Water   -- Object name: Zone HVAC Baseboard Convective Water 13\\nOrphaned ZoneHVAC object found.  This was object never referenced in the input, and was not used.   -- Object type: ZoneHVAC:Baseboard:Convective:Water   -- Object name: Zone HVAC Baseboard Convective Water 14\\nOrphaned ZoneHVAC object found.  This was object never referenced in the input, and was not used.   -- Object type: ZoneHVAC:Baseboard:Convective:Water   -- Object name: Zone HVAC Baseboard Convective Water 15\n",
            "step_errors" : [],
            "step_files" : [],
            "step_info" : [],
            "step_result" : "Success",
            "step_values" : [
               {
                  "name" : "heat_pump_type",
                  "value" : "CCASHP"
               },
               {
                  "name" : "zone_htg_eqpt",
                  "value" : "Electric Baseboard"
               },
               {
                  "name" : "zone_clg_eqpt",
                  "value" : "Keep Existing"
               },
               {
                  "name" : "zone_term_reheat_eqpt",
                  "value" : "Electric"
               },
               {
                  "name" : "htg_cop",
                  "value" : 0
               },
               {
                  "name" : "clg_cop",
                  "value" : 0
               }
            ],
            "step_warnings" : []
         }
      },
      {
         "arguments" : {},
         "description" : "BTAPUtilityTariffs",
         "measure_dir_name" : "btap_utility_tariffs",
         "name" : "btap_utility_tariffs_model_setup",
         "result" : {
            "completed_at" : "20190517T152412Z",
            "measure_class_name" : "BTAPUtilityTariffsModelSetup",
            "measure_display_name" : "BTAPUtilityTariffsModelSetup",
            "measure_name" : "btap_utility_tariffs_model_setup",
            "measure_taxonomy" : "Economics.Life Cycle Cost Analysis",
            "measure_type" : "EnergyPlusMeasure",
            "measure_uid" : "34c820cf-b55d-4bdf-b654-48e5bd9beef8",
            "measure_version_id" : "20dd95fb-d5b0-4916-ace4-5633a6208092",
            "measure_version_modified" : "20181219T170133Z",
            "measure_xml_checksum" : "D1E2AA62",
            "started_at" : "20190517T152412Z",
            "stderr" : "",
            "stdout" : "[OpenStudio.Measure] <0> OSArgumentVector is deprecated, use OpenStudio::Measure::OSArgumentVector instead.\n",
            "step_errors" : [],
            "step_files" : [],
            "step_info" : [
               "Found Electricity tariff database match for weather_station :Ottawa=Macdonald-Cartier Intl AP_ON_CAN\n Row Information is Electricity,kWh,OttawaHydro,Ottawa=Macdonald-Cartier Intl AP_ON_CAN,Ontario,260.82,750,0.094,751,0.11,752,0.11,753,0.11,0.11,50,0,51,8.12304,52,8.12304,53,8.12304,8.12304\n",
               "Found Gas tariff database match for weather_station :Ottawa=Macdonald-Cartier Intl AP_ON_CAN\n Row Information is Gas,MJ,Enbridge ,Ottawa=Macdonald-Cartier Intl AP_ON_CAN,Ontario,122.01,1,0.0105,2,0.0105,3,0.0105,4,0.0105,0.0105,1,0,2,0,3,0,4,0,0\n",
               "Found FuelOil#2 tariff database match for weather_station :Ottawa=Macdonald-Cartier Intl AP_ON_CAN\n Row Information is FuelOil#2,MJ,NoneOil,Ottawa=Macdonald-Cartier Intl AP_ON_CAN,Ontario,0,1,0,2,0,3,0,4,0,0,1,0,2,0,3,0,4,0,0\n",
[...]
"=>\"BTAP-ExteriorRoof-IEAD-4\", \"conductance\"=>0.15599999999999992, \"area\"=>1660.7286318000001, \"cost\"=>167849.5656899621, \"cost_per_area\"=>101.06983312983313, \"note\"=>\"Surf #1: OK\"}], \"total_envelope_cost\"=>407426.85}, \"lighting\"=>{\"fixture_report\"=>[{\"fixture_type\"=>\"7\", \"fixture_description\"=>\"High Bay (10 ft above work plane) Fluorescent Lighting 1.5 W/ft2 (16 W/m2), 103FC, 7 Fixtures per 1000 ft2\", \"floor_area_ft2\"=>53628.00000000003, \"cost\"=>318037.5553954478, \"cost_per_ft2\"=>5.930438491001858, \"spaces\"=>[\"Core_bottom\", \"Core_mid\", \"Core_top\", \"Perimeter_bot_ZN_1\", \"Perimeter_bot_ZN_2\", \"Perimeter_bot_ZN_3\", \"Perimeter_bot_ZN_4\", \"Perimeter_mid_ZN_1\", \"Perimeter_mid_ZN_2\", \"Perimeter_mid_ZN_3\", \"Perimeter_mid_ZN_4\", \"Perimeter_top_ZN_1\", \"Perimeter_top_ZN_2\", \"Perimeter_top_ZN_3\", \"Perimeter_top_ZN_4\"], \"number_of_spaces\"=>15}, {\"fixture_type\"=>\"Nil\", \"fixture_description\"=>\"\", \"floor_area_ft2\"=>53627.700000000004, \"cost\"=>0.0, \"cost_per_ft2\"=>0.0, \"spaces\"=>[\"FirstFloor_Plenum\", \"MidFloor_Plenum\", \"TopFloor_Plenum\"], \"number_of_spaces\"=>3}], \"space_report\"=>[{\"space\"=>\"Core_bottom\", \"zone\"=>\"Sp-Core_bottom Sys-6 Flr-1 Sch-A HPlcmt-core ZN\", \"building_type\"=>\"Space Function\", \"space_type\"=>\"Office open plan\", \"zone_multiplier\"=>1, \"fixture_type\"=>\"7\", \"fixture_desciption\"=>\"High Bay (10 ft above work plane) Fluorescent Lighting 1.5 W/ft2 (16 W/m2), 103FC, 7 Fixtures per 1000 ft2\", \"height_avg_ft\"=>9.0, \"floor_area_ft2\"=>10586.7, \"cost\"=>62784.0, \"cost_per_ft2\"=>5.930460098270826, \"note\"=>\"\"}, {\"space\"=>\"Core_mid\", \"zone\"=>\"Sp-Core_mid Sys-6 Flr-2 Sch-A HPlcmt-core ZN\", \"building_type\"=>\"Space Function\", \"space_type\"=>\"Office open plan\", \"zone_multiplier\"=>1, \"fixture_type\"=>\"7\", \"fixture_desciption\"=>\"High Bay (10 ft above work plane) Fluorescent Lighting 1.5 W/ft2 (16 W/m2), 103FC, 7 Fixtures per 1000 ft2\", \"height_avg_ft\"=>9.0, \"floor_area_ft2\"=>10586.7, \"cost\"=>62784.0, \"cost_per_ft2\"=>5.930460098270826, \"note\"=>\"\"}, {\"space\"=>\"Core_top\", \"zone\"=>\"Sp-Core_top Sys-6 Flr-3 Sch-A HPlcmt-core ZN\", \"building_type\"=>\"Space Function\", \"space_type\"=>\"Office open plan\", \"zone_multiplier\"=>1, \"fixture_type\"=>\"7\", \"fixture_desciption\"=>\"High Bay (10 ft above work plane) Fluorescent Lighting 1.5 W/ft2 (16 W/m2), 103FC, 7 Fixtures per 1000 ft2\", \"height_avg_ft\"=>9.0, \"floor_area_ft2\"=>10586.7, \"cost\"=>62784.0, \"cost_per_ft2\"=>5.930460098270826, \"note\"=>\"\"}, {\"space\"=>\"FirstFloor_Plenum\", \"zone\"=>\"Sp-FirstFloor_Plenum Sys-0 Flr-1 Sch-- undefined - HPlcmt-north ZN\", \"building_type\"=>\"Space Function\", \"space_type\"=>\"- undefined -\", \"zone_multiplier\"=>1, \"fixture_type\"=>\"Nil\", \"fixture_desciption\"=>\"\", \"height_avg_ft\"=>4.0, \"floor_area_ft2\"=>17875.9, \"cost\"=>0.0, \"cost_per_ft2\"=>0.0, \"note\"=>\"\"}, {\"space\"=>\"MidFloor_Plenum\", \"zone\"=>\"Sp-MidFloor_Plenum Sys-0 Flr-2 Sch-- undefined - HPlcmt-north ZN\", \"building_type\"=>\"Space Function\", \"space_type\"=>\"- undefined -\", \"zone_multiplier\"=>1, \"fixture_type\"=>\"Nil\", \"fixture_desciption\"=>\"\", \"height_avg_ft\"=>4.0, \"floor_area_ft2\"=>17875.9, \"cost\"=>0.0, \"cost_per_ft2\"=>0.0, \"note\"=>\"\"}, {\"space\"=>\"Perimeter_bot_ZN_1\", \"zone\"=>\"Sp-Perimeter_bot_ZN_1 Sys-6 Flr-1 Sch-A HPlcmt-south ZN\", \"building_type\"=>\"Space Function\", \"space_type\"=>\"Office open plan\", \"zone_multiplier\"=>1, \"fixture_type\"=>\"7\", \"fixture_desciption\"=>\"High Bay (10 ft above work plane) Fluorescent Lighting 1.5 W/ft2 (16 W/m2), 103FC, 7 Fixtures per 1000 ft2\", \"height_avg_ft\"=>9.0, \"floor_area_ft2\"=>2231.8, \"cost\"=>13235.42, \"cost_per_ft2\"=>5.930378441397852, \"note\"=>\"\"}, {\"space\"=>\"Perimeter_bot_ZN_2\", \"zone\"=>\"Sp-Perimeter_bot_ZN_2 Sys-6 Flr-1 Sch-A HPlcmt-east ZN\", \"building_type\"=>\"Space Function\", \"space_type\"=>\"Office open plan\", \"zone_multiplier\"=>1, \"fixture_type\"=>\"7\", \"fixture_desciption\"=>\"High Bay (10 ft above work plane) Fluorescent Lighting 1.5 W/ft2 (16 W/m2), 103FC, 7 Fixtures per 1000 ft2\", \"height_avg_ft\"=>9.0, \"floor_area_ft2\"=>1412.9, \"cost\"=>8379.11, \"cost_per_ft2\"=>5.930437257735012, \"note\"=>\"\"}, {\"space\"=>\"Perimeter_bot_ZN_3\", \"zone\"=>\"Sp-Perimeter_bot_ZN_3 Sys-6 Flr-1 Sch-A HPlcmt-north ZN\", \"building_type\"=>\"Space Function\", \"space_type\"=>\"Office open plan\", \"zone_multiplier\"=>1, \"fixture_type\"=>\"7\", \"fixture_desciption\"=>\"High Bay (10 ft above work plane) Fluorescent Lighting 1.5 W/ft2 (16 W/m2), 103FC, 7 Fixtures per 1000 ft2\", \"height_avg_ft\"=>9.0, \"floor_area_ft2\"=>2231.8, \"cost\"=>13235.42, \"cost_per_ft2\"=>5.930378441397852, \"note\"=>\"\"}, {\"space\"=>\"Perimeter_bot_ZN_4\", \"zone\"=>\"Sp-Perimeter_bot_ZN_4 Sys-6 Flr-1 Sch-A HPlcmt-west ZN\", \"building_type\"=>\"Space Function\", \"space_type\"=>\"Office open plan\", \"zone_multiplier\"=>1, \"fixture_type\"=>\"7\", \"fixture_desciption\"=>\"High Bay (10 ft above work plane) Fluorescent Lighting 1.5 W/ft2 (16 W/m2), 103FC, 7 Fixtures per 1000 ft2\", \"height_avg_ft\"=>9.0, \"floor_area_ft2\"=>1412.8, \"cost\"=>8378.57, \"cost_per_ft2\"=>5.930467986336499, \"note\"=>\"\"}, {\"space\"=>\"Perimeter_mid_ZN_1\", \"zone\"=>\"Sp-Perimeter_mid_ZN_1 Sys-6 Flr-2 Sch-A HPlcmt-south ZN\", \"building_type\"=>\"Space Function\", \"space_type\"=>\"Office open plan\", \"zone_multiplier\"=>1, \"fixture_type\"=>\"7\", \"fixture_desciption\"=>\"High Bay (10 ft above work plane) Fluorescent Lighting 1.5 W/ft2 (16 W/m2), 103FC, 7 Fixtures per 1000 ft2\", \"height_avg_ft\"=>9.0, \"floor_area_ft2\"=>2231.8, \"cost\"=>13235.42, \"cost_per_ft2\"=>5.930378441397852, \"note\"=>\"\"}, {\"space\"=>\"Perimeter_mid_ZN_2\", \"zone\"=>\"Sp-Perimeter_mid_ZN_2 Sys-6 Flr-2 Sch-A HPlcmt-east ZN\", \"building_type\"=>\"Space Function\", \"space_type\"=>\"Office open plan\", \"zone_multiplier\"=>1, \"fixture_type\"=>\"7\", \"fixture_desciption\"=>\"High Bay (10 ft above work plane) Fluorescent Lighting 1.5 W/ft2 (16 W/m2), 103FC, 7 Fixtures per 1000 ft2\", \"height_avg_ft\"=>9.0, \"floor_area_ft2\"=>1412.9, \"cost\"=>8379.11, \"cost_per_ft2\"=>5.930437257735012, \"note\"=>\"\"}, {\"space\"=>\"Perimeter_mid_ZN_3\", \"zone\"=>\"Sp-Perimeter_mid_ZN_3 Sys-6 Flr-2 Sch-A HPlcmt-north ZN\", \"building_type\"=>\"Space Function\", \"space_type\"=>\"Office open plan\", \"zone_multiplier\"=>1, \"fixture_type\"=>\"7\", \"fixture_desciption\"=>\"High Bay (10 ft above work plane) Fluorescent Lighting 1.5 W/ft2 (16 W/m2), 103FC, 7 Fixtures per 1000 ft2\", \"height_avg_ft\"=>9.0, \"floor_area_ft2\"=>2231.8, \"cost\"=>13235.42, \"cost_per_ft2\"=>5.930378441397852, \"note\"=>\"\"}, {\"space\"=>\"Perimeter_mid_ZN_4\", \"zone\"=>\"Sp-Perimeter_mid_ZN_4 Sys-6 Flr-2 Sch-A HPlcmt-west ZN\", \"building_type\"=>\"Space Function\", \"space_type\"=>\"Office open plan\", \"zone_multiplier\"=>1, \"fixture_type\"=>\"7\", \"fixture_desciption\"=>\"High Bay (10 ft above work plane) Fluorescent Lighting 1.5 W/ft2 (16 W/m2), 103FC, 7 Fixtures per 1000 ft2\", \"height_avg_ft\"=>9.0, \"floor_area_ft2\"=>1412.8, \"cost\"=>8378.57, \"cost_per_ft2\"=>5.930467986336499, \"note\"=>\"\"}, {\"space\"=>\"Perimeter_top_ZN_1\", \"zone\"=>\"Sp-Perimeter_top_ZN_1 Sys-6 Flr-3 Sch-A HPlcmt-south ZN\", \"building_type\"=>\"Space Function\", \"space_type\"=>\"Office open plan\", \"zone_multiplier\"=>1, \"fixture_type\"=>\"7\", \"fixture_desciption\"=>\"High Bay (10 ft above work plane) Fluorescent Lighting 1.5 W/ft2 (16 W/m2), 103FC, 7 Fixtures per 1000 ft2\", \"height_avg_ft\"=>9.0, \"floor_area_ft2\"=>2231.8, \"cost\"=>13235.42, \"cost_per_ft2\"=>5.930378441397852, \"note\"=>\"\"}, {\"space\"=>\"Perimeter_top_ZN_2\", \"zone\"=>\"Sp-Perimeter_top_ZN_2 Sys-6 Flr-3 Sch-A HPlcmt-east ZN\", \"building_type\"=>\"Space Function\", \"space_type\"=>\"Office open plan\", \"zone_multiplier\"=>1, \"fixture_type\"=>\"7\", \"fixture_desciption\"=>\"High Bay (10 ft above work plane) Fluorescent Lighting 1.5 W/ft2 (16 W/m2), 103FC, 7 Fixtures per 1000 ft2\", \"height_avg_ft\"=>9.0, \"floor_area_ft2\"=>1412.9, \"cost\"=>8379.11, \"cost_per_ft2\"=>5.930437257735012, \"note\"=>\"\"}, {\"space\"=>\"Perimeter_top_ZN_3\", \"zone\"=>\"Sp-Perimeter_top_ZN_3 Sys-6 Flr-3 Sch-A HPlcmt-north ZN\", \"building_type\"=>\"Space Function\", \"space_type\"=>\"Office open plan\", \"zone_multiplier\"=>1, \"fixture_type\"=>\"7\", \"fixture_desciption\"=>\"High Bay (10 ft above work plane) Fluorescent Lighting 1.5 W/ft2 (16 W/m2), 103FC, 7 Fixtures per 1000 ft2\", \"height_avg_ft\"=>9.0, \"floor_area_ft2\"=>2231.8, \"cost\"=>13235.42, \"cost_per_ft2\"=>5.930378441397852, \"note\"=>\"\"}, {\"space\"=>\"Perimeter_top_ZN_4\", \"zone\"=>\"Sp-Perimeter_top_ZN_4 Sys-6 Flr-3 Sch-A HPlcmt-west ZN\", \"building_type\"=>\"Space Function\", \"space_type\"=>\"Office open plan\", \"zone_multiplier\"=>1, \"fixture_type\"=>\"7\", \"fixture_desciption\"=>\"High Bay (10 ft above work plane) Fluorescent Lighting 1.5 W/ft2 (16 W/m2), 103FC, 7 Fixtures per 1000 ft2\", \"height_avg_ft\"=>9.0, \"floor_area_ft2\"=>1412.8, \"cost\"=>8378.57, \"cost_per_ft2\"=>5.930467986336499, \"note\"=>\"\"}, {\"space\"=>\"TopFloor_Plenum\", \"zone\"=>\"Sp-TopFloor_Plenum Sys-0 Flr-3 Sch-- undefined - HPlcmt-north ZN\", \"building_type\"=>\"Space Function\", \"space_type\"=>\"- undefined -\", \"zone_multiplier\"=>1, \"fixture_type\"=>\"Nil\", \"fixture_desciption\"=>\"\", \"height_avg_ft\"=>4.0, \"floor_area_ft2\"=>17875.9, \"cost\"=>0.0, \"cost_per_ft2\"=>0.0, \"note\"=>\"\"}], \"total_lighting_cost\"=>318037.56}, \"heating_and_cooling\"=>{\"plant_equipment\"=>[{\"type\"=>\"boilers\", \"nom_flr2flr_hght_ft\"=>13.0, \"ht_roof_ft\"=>39.0, \"longest_distance_to_ext_ft\"=>88.0, \"wiring_and_gas_connections_distance_ft\"=>88.0, \"equipment_cost\"=>52997.5, \"flue_cost\"=>2422.71, \"wiring_and_gas_connections_cost\"=>2513.72, \"pump_cost\"=>21291.68, \"piping_cost\"=>1767.03, \"total_cost\"=>80992.65}, {\"type\"=>\"chillers\", \"nom_flr2flr_hght_ft\"=>13.0, \"ht_roof_ft\"=>39.0, \"longest_distance_to_ext_ft\"=>88.0, \"wiring_and_gas_connections_distance_ft\"=>88.0, \"equipment_cost\"=>0.0, \"flue_cost\"=>0.0, \"wiring_and_gas_connections_cost\"=>0.0, \"pump_cost\"=>0.0, \"piping_cost\"=>0.0, \"total_cost\"=>0.0}, {\"type\"=>\"cooling_towers\", \"nom_flr2flr_hght_ft\"=>13.0, \"ht_roof_ft\"=>39.0, \"longest_distance_to_ext_ft\"=>88.0, \"wiring_and_gas_connections_distance_ft\"=>88.0, \"equipment_cost\"=>0.0, \"wiring_and_gas_connections_cost\"=>0.0, \"pump_cost\"=>0.0, \"piping_cost\"=>0.0, \"total_cost\"=>0.0}], \"zonal_systems\"=>[{\"systype\"=>nil, \"zone_number\"=>1, \"zone_name\"=>\"Sp-Core_bottom Sys-6 Flr-1 Sch-A HPlcmt-core ZN\", \"zone_multiple\"=>1, \"heat_capacity(kW)\"=>3.0, \"cool_capacity(kW)\"=>0.0, \"heat_cost\"=>0.0, \"cool_cost\"=>0.0, \"heatcool_cost\"=>0.0, \"num_units\"=>nil, \"cummultive_cost\"=>0.0}, {\"systype\"=>nil, \"zone_number\"=>2, \"zone_name\"=>\"Sp-Core_mid Sys-6 Flr-2 Sch-A HPlcmt-core ZN\", \"zone_multiple\"=>1, \"heat_capacity(kW)\"=>7.1, \"cool_capacity(kW)\"=>0.0, \"heat_cost\"=>0.0, \"cool_cost\"=>0.0, \"heatcool_cost\"=>0.0, \"num_units\"=>nil, \"cummultive_cost\"=>0.0}, {\"systype\"=>nil, \"zone_number\"=>3, \"zone_name\"=>\"Sp-Core_top Sys-6 Flr-3 Sch-A HPlcmt-core ZN\", \"zone_multiple\"=>1, \"heat_capacity(kW)\"=>23.6, \"cool_capacity(kW)\"=>0.0, \"heat_cost\"=>0.0, \"cool_cost\"=>0.0, \"heatcool_cost\"=>0.0, \"num_units\"=>nil, \"cummultive_cost\"=>0.0}, {\"systype\"=>nil, \"zone_number\"=>6, \"zone_name\"=>\"Sp-Perimeter_bot_ZN_1 Sys-6 Flr-1 Sch-A HPlcmt-south ZN\", \"zone_multiple\"=>1, \"heat_capacity(kW)\"=>8.1, \"cool_capacity(kW)\"=>0.0, \"heat_cost\"=>0.0, \"cool_cost\"=>0.0, \"heatcool_cost\"=>0.0, \"num_units\"=>nil, \"cummultive_cost\"=>0.0}, {\"systype\"=>nil, \"zone_number\"=>7, \"zone_name\"=>\"Sp-Perimeter_bot_ZN_2 Sys-6 Flr-1 Sch-A HPlcmt-east ZN\", \"zone_multiple\"=>1, \"heat_capacity(kW)\"=>5.5, \"cool_capacity(kW)\"=>0.0, \"heat_cost\"=>0.0, \"cool_cost\"=>0.0, \"heatcool_cost\"=>0.0, \"num_units\"=>nil, \"cummultive_cost\"=>0.0}, {\"systype\"=>nil, \"zone_number\"=>8, \"zone_name\"=>\"Sp-Perimeter_bot_ZN_3 Sys-6 Flr-1 Sch-A HPlcmt-north ZN\", \"zone_multiple\"=>1, \"heat_capacity(kW)\"=>8.2, \"cool_capacity(kW)\"=>0.0, \"heat_cost\"=>0.0, \"cool_cost\"=>0.0, \"heatcool_cost\"=>0.0, \"num_units\"=>nil, \"cummultive_cost\"=>0.0}, {\"systype\"=>nil, \"zone_number\"=>9, \"zone_name\"=>\"Sp-Perimeter_bot_ZN_4 Sys-6 Flr-1 Sch-A HPlcmt-west ZN\", \"zone_multiple\"=>1, \"heat_capacity(kW)\"=>5.6, \"cool_capacity(kW)\"=>0.0, \"heat_cost\"=>0.0, \"cool_cost\"=>0.0, \"heatcool_cost\"=>0.0, \"num_units\"=>nil, \"cummultive_cost\"=>0.0}, {\"systype\"=>nil, \"zone_number\"=>10, \"zone_name\"=>\"Sp-Perimeter_mid_ZN_1 Sys-6 Flr-2 Sch-A HPlcmt-south ZN\", \"zone_multiple\"=>1, \"heat_capacity(kW)\"=>8.7, \"cool_capacity(kW)\"=>0.0, \"heat_cost\"=>0.0, \"cool_cost\"=>0.0, \"heatcool_cost\"=>0.0, \"num_units\"=>nil, \"cummultive_cost\"=>0.0}, {\"systype\"=>nil, \"zone_number\"=>11, \"zone_name\"=>\"Sp-Perimeter_mid_ZN_2 Sys-6 Flr-2 Sch-A HPlcmt-east ZN\", \"zone_multiple\"=>1, \"heat_capacity(kW)\"=>5.8, \"cool_capacity(kW)\"=>0.0, \"heat_cost\"=>0.0, \"cool_cost\"=>0.0, \"heatcool_cost\"=>0.0, \"num_units\"=>nil, \"cummultive_cost\"=>0.0}, {\"systype\"=>nil, \"zone_number\"=>12, \"zone_name\"=>\"Sp-Perimeter_mid_ZN_3 Sys-6 Flr-2 Sch-A HPlcmt-north ZN\", \"zone_multiple\"=>1, \"heat_capacity(kW)\"=>8.8, \"cool_capacity(kW)\"=>0.0, \"heat_cost\"=>0.0, \"cool_cost\"=>0.0, \"heatcool_cost\"=>0.0, \"num_units\"=>nil, \"cummultive_cost\"=>0.0}, {\"systype\"=>nil, \"zone_number\"=>13, \"zone_name\"=>\"Sp-Perimeter_mid_ZN_4 Sys-6 Flr-2 Sch-A HPlcmt-west ZN\", \"zone_multiple\"=>1, \"heat_capacity(kW)\"=>5.9, \"cool_capacity(kW)\"=>0.0, \"heat_cost\"=>0.0, \"cool_cost\"=>0.0, \"heatcool_cost\"=>0.0, \"num_units\"=>nil, \"cummultive_cost\"=>0.0}, {\"systype\"=>nil, \"zone_number\"=>14, \"zone_name\"=>\"Sp-Perimeter_top_ZN_1 Sys-6 Flr-3 Sch-A HPlcmt-south ZN\", \"zone_multiple\"=>1, \"heat_capacity(kW)\"=>13.1, \"cool_capacity(kW)\"=>0.0, \"heat_cost\"=>0.0, \"cool_cost\"=>0.0, \"heatcool_cost\"=>0.0, \"num_units\"=>nil, \"cummultive_cost\"=>0.0}, {\"systype\"=>nil, \"zone_number\"=>15, \"zone_name\"=>\"Sp-Perimeter_top_ZN_2 Sys-6 Flr-3 Sch-A HPlcmt-east ZN\", \"zone_multiple\"=>1, \"heat_capacity(kW)\"=>8.6, \"cool_capacity(kW)\"=>0.0, \"heat_cost\"=>0.0, \"cool_cost\"=>0.0, \"heatcool_cost\"=>0.0, \"num_units\"=>nil, \"cummultive_cost\"=>0.0}, {\"systype\"=>nil, \"zone_number\"=>16, \"zone_name\"=>\"Sp-Perimeter_top_ZN_3 Sys-6 Flr-3 Sch-A HPlcmt-north ZN\", \"zone_multiple\"=>1, \"heat_capacity(kW)\"=>13.2, \"cool_capacity(kW)\"=>0.0, \"heat_cost\"=>0.0, \"cool_cost\"=>0.0, \"heatcool_cost\"=>0.0, \"num_units\"=>nil, \"cummultive_cost\"=>0.0}, {\"systype\"=>nil, \"zone_number\"=>17, \"zone_name\"=>\"Sp-Perimeter_top_ZN_4 Sys-6 Flr-3 Sch-A HPlcmt-west ZN\", \"zone_multiple\"=>1, \"heat_capacity(kW)\"=>8.7, \"cool_capacity(kW)\"=>0.0, \"heat_cost\"=>0.0, \"cool_cost\"=>0.0, \"heatcool_cost\"=>0.0, \"num_units\"=>nil, \"cummultive_cost\"=>0.0}]}, \"shw\"=>{}, \"ventilation\"=>{}, \"totals\"=>{\"envelope\"=>407426.85, \"lighting\"=>318037.56, \"heating_and_cooling\"=>80992.65, \"shw\"=>0.0, \"ventilation\"=>751067.28, \"grand_total\"=>1557524.34}, \"zonal systems\"=>{}}"
               },
               {
                  "name" : "total_envelope_cost",
                  "value" : 407426.84999999998
               },
               {
                  "name" : "total_lighting_cost",
                  "value" : 318037.56
               },
               {
                  "name" : "total_heating_cooling_cost",
                  "value" : 0
               },
               {
                  "name" : "total_shw_cost",
                  "value" : 0
               },
               {
                  "name" : "total_ventilation_cost",
                  "value" : 751067.28000000003
               },
               {
                  "name" : "total_capital_cost",
                  "value" : 0
               },
               {
                  "name" : "total_neb_utility_costs",
                  "value" : 73905.114100000006
               },
               {
                  "name" : "total_capital_and_energy_costs",
                  "value" : 73905.114100000006
               },
               {
                  "name" : "total_envelope_and_energy_costs",
                  "value" : 481331.96409999998
               }
            ],
            "step_warnings" : []
         }
      },
      {
         "arguments" : {},
         "description" : "Removes a significant portion of the saved results from each run, helping to alleviate memory problems.",
         "measure_dir_name" : "ServerDirectoryCleanup",
         "name" : "server_directory_cleanup",
         "result" : {
            "completed_at" : "20190517T152532Z",
            "measure_class_name" : "ServerDirectoryCleanup",
            "measure_display_name" : "Server Directory Cleanup",
            "measure_name" : "server_directory_cleanup",
            "measure_taxonomy" : "Calibration",
            "measure_type" : "ReportingMeasure",
            "measure_uid" : "ec7d04ad-0b7b-495b-825a-e1b6d28d1d3f",
            "measure_version_id" : "2e0a3f67-3aa6-42cc-b9ff-8aa66615c0a1",
            "measure_version_modified" : "20190226T195336Z",
            "measure_xml_checksum" : "5F1EDF75",
            "started_at" : "20190517T152532Z",
            "stderr" : "",
            "stdout" : "[OpenStudio.Measure] <0> OSArgumentVector is deprecated, use OpenStudio::Measure::OSArgumentVector instead.\n",
            "step_errors" : [],
            "step_files" : [],
            "step_final_condition" : "The following files were in the local run directory following to the execution of this measure: eplusout.mtr, 000_btap_create_necb_prototype_building, sqlite.err, run.log, in.epw, pre-preprocess.idf, measure_attributes.json, eplusout.rdd, 002_btap_utility_tariffs, 001_BTAPHeatPumpAirSystem, 003_ServerDirectoryCleanup, eplusout.mtd, stdout-expandobject, 004_ServerDirectoryCleanup, in.idf, ., eplusout.end, eplustbl.htm, stdout-energyplus, eplusout.err, 003_btap_results, started.job, ...",
            "step_info" : [
               "Deleted ./../eplusout.sql from the run directory.",
               "Deleted ./../eplusout.audit from the run directory.",
               "Deleted ./../in.osm from the run directory.",
               "Deleted ./../eplusout.bnd from the run directory.",
               "Deleted ./../eplusout.eio from the run directory.",
               "Deleted ./../eplusout.shd from the run directory.",
               "Deleted ./../eplusout.mdd from the run directory.",
               "Deleted ./../eplusssz.csv from the run directory.",
               "Deleted ./../epluszsz.csv from the run directory.",
               "Deleted ./../eplusout.eso from the run directory."
            ],
            "step_initial_condition" : "The following files were in the local run directory prior to the execution of this measure: in.osm, eplusout.sql, eplusssz.csv, eplusout.mtr, 000_btap_create_necb_prototype_building, sqlite.err, run.log, in.epw, pre-preprocess.idf, epluszsz.csv, eplusout.bnd, measure_attributes.json, eplusout.rdd, 002_btap_utility_tariffs, 001_BTAPHeatPumpAirSystem, 003_ServerDirectoryCleanup, eplusout.mtd, eplusout.eio, stdout-expandobject, eplusout.eso, 004_ServerDirectoryCleanup, in.idf, eplusout.shd, ., eplusout.end, eplustbl.htm, stdout-energyplus, eplusout.err, eplusout.audit, 003_btap_results, eplusout.mdd, started.job, ...",
            "step_result" : "Success",
            "step_values" : [],
            "step_warnings" : []
         }
      }
   ],
   "updated_at" : "20190517T152536Z",
   "weather_file" : "dummy.epw"
}
