{
   "completed_at" : "20190517T152414Z",
   "completed_status" : "Success",
   "created_at" : "2019-05-17 15:22:45 +0000",
   "current_step" : 5,
   "description" : "",
   "eplusout_err" : "Program Version,EnergyPlus, Version 8.9.0-eba93e8e1b, YMD=2019.05.17 15:23,\n   ************* Beginning Zone Sizing Calculations\n   ** Warning ** ProcessScheduleInput: Schedule:Day:Interval=\"ECONOMIZER MAX OA FRACTION 100 PCT DEFAULT\", Blank Schedule Type Limits Name input -- will not be validated.\n   ** Warning ** ProcessScheduleInput: Schedule:Day:Interval=\"SCHEDULE DAY 1\", Blank Schedule Type Limits Name input -- will not be validated.\n   ** Warning ** ProcessScheduleInput: Schedule:Day:Interval=\"SCHEDULE DAY 10\", Blank Schedule Type Limits Name input -- will not be validated.\n   ** Warning ** ProcessScheduleInput: Schedule:Day:Interval=\"SCHEDULE DAY 11\", Blank Schedule Type Limits Name input -- will not be validated.\n   ** Warning ** ProcessScheduleInput: Schedule:Day:Interval=\"SCHEDULE DAY 12\", Blank Schedule Type Limits Name input -- will not be validated.\n   ** Warning ** ProcessScheduleInput: Schedule:Day:Interval=\"SCHEDULE DAY 13\", Blank Schedule Type Limits Name input -- will not be validated.\n   ** Warning ** ProcessScheduleInput: Schedule:Day:Interval=\"SCHEDULE DAY 14\", Blank Schedule Type Limits Name input -- will not be validated.\n   ** Warning ** ProcessScheduleInput: Schedule:Day:Interval=\"SCHEDULE DAY 2\", Blank Schedule Type Limits Name input -- will not be validated.\n   ** Warning ** ProcessScheduleInput: Schedule:Day:Interval=\"SCHEDULE DAY 5\", Blank Schedule Type Limits Name input -- will not be validated.\n   ** Warning ** ProcessScheduleInput: Schedule:Day:Interval=\"SCHEDULE DAY 6\", Blank Schedule Type Limits Name input -- will not be validated.\n   ** Warning ** ProcessScheduleInput: Schedule:Day:Interval=\"SCHEDULE DAY 7\", Blank Schedule Type Limits Name input -- will not be validated.\n   ** Warning ** ProcessScheduleInput: Schedule:Day:Interval=\"SCHEDULE DAY 8\", Blank Schedule Type Limits Name input -- will not be validated.\n   ** Warning ** ProcessScheduleInput: Schedule:Day:Interval=\"SCHEDULE DAY 9\", Blank Schedule Type Limits Name input -- will not be validated.\n   ** Warning ** ProcessScheduleInput: Schedule:Year=\"ECONOMIZER MAX OA FRACTION 100 PCT\", Blank Schedule Type Limits Name input -- will not be validated.\n   ** Warning ** ProcessScheduleInput: Schedule:Year=\"SCHEDULE RULESET 3\", Blank Schedule Type Limits Name input -- will not be validated.\n   ** Warning ** ProcessScheduleInput: Schedule:Year=\"SCHEDULE RULESET 4\", Blank Schedule Type Limits Name input -- will not be validated.\n   ** Warning ** ProcessScheduleInput: Schedule:Year=\"SCHEDULE RULESET 5\", Blank Schedule Type Limits Name input -- will not be validated.\n   ** Warning ** ProcessScheduleInput: Schedule:Year=\"SCHEDULE RULESET 6\", Blank Schedule Type Limits Name input -- will not be validated.\n   ** Warning ** ProcessScheduleInput: Schedule:Year=\"SCHEDULE RULESET 7\", Blank Schedule Type Limits Name input -- will not be validated.\n   ** Warning ** ProcessScheduleInput: Schedule:Year=\"SCHEDULE RULESET 8\", Blank Schedule Type Limits Name input -- will not be validated.\n   ** Warning ** ProcessScheduleInput: Schedule:Constant=\"ALWAYS ON CONTINUOUS\", Blank Schedule Type Limits Name input -- will not be validated.\n   ** Warning ** CheckUsedConstructions: There are 15 nominally unused constructions in input.\n   **   ~~~   ** For explicit details on each unused construction, use Output:Diagnostics,DisplayExtraWarnings;\n   ** Warning ** GetInternalHeatGains: People Combination of ZoneList and Object Name generate a name too long.\n   **   ~~~   ** Object Name=\"SPACE FUNCTION DINING AREA - BAR LOUNGE/LEISURE DINING PEOPLE\".\n   **   ~~~   ** ZoneList/Zone Name=\"SP-DINING SYS-3 FLR-1 SCH-B HPLCMT-SOUTH ZN\".\n   **   ~~~   ** Item length=[104] > Maximum Length=[100]. You may need to shorten the names.\n   **   ~~~   ** Shortening the Object Name by [5] characters will assure uniqueness for this ZoneList.\n   **   ~~~   ** name that will be used (may be needed in reporting)=\"SP-DINING SYS-3 FLR-1 SCH-B HPLCMT-SOUTH ZN SPACE FUNCTION DINING AREA - BAR LOUNGE/LEISURE DINING PEOPLE\".\n   ** Warning ** GetInternalHeatGains: Lights Combination of ZoneList and Object Name generate a name too long.\n   **   ~~~   ** Object Name=\"SPACE FUNCTION DINING AREA - BAR LOUNGE/LEISURE DINING LIGHTS\".\n   **   ~~~   ** ZoneList/Zone Name=\"SP-DINING SYS-3 FLR-1 SCH-B HPLCMT-SOUTH ZN\".\n   **   ~~~   ** Item length=[104] > Maximum Length=[100]. You may need to shorten the names.\n   **   ~~~   ** Shortening the Object Name by [5] characters will assure uniqueness for this ZoneList.\n   **   ~~~   ** name that will be used (may be needed in reporting)=\"SP-DINING SYS-3 FLR-1 SCH-B HPLCMT-SOUTH ZN SPACE FUNCTION DINING AREA - BAR LOUNGE/LEISURE DINING LIGHTS\".\n   ** Warning ** GetInternalHeatGains: ElectricEquipment Combination of ZoneList and Object Name generate a name too long.\n   **   ~~~   ** Object Name=\"SPACE FUNCTION DINING AREA - BAR LOUNGE/LEISURE DINING ELEC EQUIP\".\n   **   ~~~   ** ZoneList/Zone Name=\"SP-DINING SYS-3 FLR-1 SCH-B HPLCMT-SOUTH ZN\".\n   **   ~~~   ** Item length=[108] > Maximum Length=[100]. You may need to shorten the names.\n   **   ~~~   ** Shortening the Object Name by [9] characters will assure uniqueness for this ZoneList.\n   **   ~~~   ** name that will be used (may be needed in reporting)=\"SP-DINING SYS-3 FLR-1 SCH-B HPLCMT-SOUTH ZN SPACE FUNCTION DINING AREA - BAR LOUNGE/LEISURE DINING ELEC EQUIP\".\n   ************* Beginning System Sizing Calculations\n   ************* Beginning Plant Sizing Calculations\n   ** Warning ** GetVarSpeedCoilInput: COIL:HEATING:DX:VARIABLESPEED=\"SYS_3_PSZ SP-DINING SYS-3 FLR-1 SCH-B HPLCMT-SOUTH ZN CCASHP DX HTG COIL\", \n   **   ~~~   ** ...Minimum Outdoor Dry-Bulb Temperature for Compressor Operation = 0.0 for defrost control = TIMED.\n   ** Warning ** GetVarSpeedCoilInput: COIL:HEATING:DX:VARIABLESPEED=\"SYS_3_PSZ SP-KITCHEN SYS-3 FLR-1 SCH-B HPLCMT-NORTH ZN CCASHP DX HTG COIL\", \n   **   ~~~   ** ...Minimum Outdoor Dry-Bulb Temperature for Compressor Operation = 0.0 for defrost control = TIMED.\n   ** Warning ** SizePlantLoop: Calculated Plant Sizing Design Volume Flow Rate=[0.00] is too small. Set to 0.0\n   **   ~~~   ** ..occurs for PlantLoop=HOT WATER LOOP\n   ** Warning ** SizePump: Calculated Pump Nominal Volume Flow Rate=[0.00] is too small. Set to 0.0\n   **   ~~~   ** ..occurs for Pump=PUMP VARIABLE SPEED 1\n   ** Warning ** Check input. Pump nominal power or motor efficiency is set to 0, for pump=PUMP VARIABLE SPEED 1\n   ** Warning ** Check input. Pump nominal flow rate is set or calculated = 0, for pump=PUMP VARIABLE SPEED 1\n   ** Warning ** Output:Meter: invalid Key Name=\"DISTRICTCOOLING:FACILITY\" - not found.\n   ** Warning ** Output:Meter: invalid Key Name=\"DISTRICTHEATING:FACILITY\" - not found.\n   ** Warning ** Output:Meter:MeterFileOnly requested for \"Electricity:Facility\" (TimeStep), already on \"Output:Meter\". Will report to both eplusout.eso and eplusout.mtr\n   ************* Testing Individual Branch Integrity\n   ************* All Branches passed integrity testing\n   ************* Testing Individual Supply Air Path Integrity\n   ************* All Supply Air Paths passed integrity testing\n   ************* Testing Individual Return Air Path Integrity\n   ************* All Return Air Paths passed integrity testing\n   ** Warning ** Potential Node Connection Error for object ZONEHVAC:BASEBOARD:CONVECTIVE:WATER, name=ZONE HVAC BASEBOARD CONVECTIVE WATER 1\n   **   ~~~   **   Node Types are still UNDEFINED -- See Branch/Node Details file for further information\n   **   ~~~   **   Inlet Node : NODE 9\n   **   ~~~   **   Outlet Node: NODE 28\n   ** Warning ** Potential Node Connection Error for object ZONEHVAC:BASEBOARD:CONVECTIVE:WATER, name=ZONE HVAC BASEBOARD CONVECTIVE WATER 2\n   **   ~~~   **   Node Types are still UNDEFINED -- See Branch/Node Details file for further information\n   **   ~~~   **   Inlet Node : NODE 40\n   **   ~~~   **   Outlet Node: NODE 41\n   ************* There were 2 node connection errors noted.\n   ************* Beginning Simulation\n   ** Warning ** Processing Monthly Tabular Reports: Variable names not valid for this simulation\n   **   ~~~   ** ...use Output:Diagnostics,DisplayExtraWarnings; to show more details on individual variables.\n   ** Warning ** GetInputEconomicsTariff: UtilityCost:Tariff=\"NONEOIL\" missing meter\n   **   ~~~   ** Meter referenced is not present due to a lack of equipment that uses that energy source/meter:\"FUELOIL#2:FACILITY\".\n   ** Warning ** The resource referenced by LifeCycleCost:UsePriceEscalation= \"U.S. AVG  COMMERCIAL-DISTILLATE OIL\" has no energy cost. \n   **   ~~~   ** ... It is likely that the wrong resource is used. The resource should match the meter used in Utility:Tariff.\n   ** Warning ** The resource referenced by LifeCycleCost:UsePriceEscalation= \"U.S. AVG  COMMERCIAL-RESIDUAL OIL\" has no energy cost. \n   **   ~~~   ** ... It is likely that the wrong resource is used. The resource should match the meter used in Utility:Tariff.\n   ** Warning ** The resource referenced by LifeCycleCost:UsePriceEscalation= \"U.S. AVG  COMMERCIAL-COAL\" has no energy cost. \n   **   ~~~   ** ... It is likely that the wrong resource is used. The resource should match the meter used in Utility:Tariff.\n   ************* Simulation Error Summary *************\n   ** Severe  ** Orphaned ZoneHVAC object found.  This was object never referenced in the input, and was not used.\n   **   ~~~   **  -- Object type: ZoneHVAC:Baseboard:Convective:Water\n   **   ~~~   **  -- Object name: Zone HVAC Baseboard Convective Water 1\n   ** Severe  ** Orphaned ZoneHVAC object found.  This was object never referenced in the input, and was not used.\n   **   ~~~   **  -- Object type: ZoneHVAC:Baseboard:Convective:Water\n   **   ~~~   **  -- Object name: Zone HVAC Baseboard Convective Water 2\n   ************* There are 2 unused objects in input.\n   ************* Use Output:Diagnostics,DisplayUnusedObjects; to see them.\n   ************* There are 9 unused schedules in input.\n   ************* There are 9 unused week schedules in input.\n   ************* There are 16 unused day schedules in input.\n   ************* Use Output:Diagnostics,DisplayUnusedSchedules; to see them.\n   *************\n   ************* ===== Final Error Summary =====\n   ************* The following error categories occurred.  Consider correcting or noting.\n   ************* Node Connection Errors\n   ************* ..Node connection errors are often caused by spelling mistakes in a node name field.\n   ************* ..To track down the problem, search the idf file for each node name listed to see if it\n   ************* ..occurs in the expected input fields.\n   ************* Nominally Unused Constructions\n   ************* ..The nominally unused constructions warning is provided to alert you to potential conditions that can cause\n   ************* ..extra time during simulation. Each construction is calculated by the algorithm indicated in the HeatBalanceAlgorithm\n   ************* ..object. You may remove the constructions indicated (when you use the DisplayExtraWarnings option).\n   *************\n   ************* EnergyPlus Warmup Error Summary. During Warmup: 0 Warning; 0 Severe Errors.\n   ************* EnergyPlus Sizing Error Summary. During Sizing: 25 Warning; 0 Severe Errors.\n   ************* EnergyPlus Completed Successfully-- 41 Warning; 2 Severe Errors; Elapsed Time=00hr 00min 27.26sec\n",
   "file_format_version" : "0.0.1",
   "file_paths" : [ "../weather", "../seeds", "../seed" ],
   "hash" : "ECFA454C",
   "measure_paths" : [ "../measures" ],
   "name" : "DOE Autogenerated 46",
   "osa_id" : "68c8b576-a9a1-447a-a2db-fd41b0db3a06",
   "osd_id" : "b9845925-4d29-4468-8a03-741ecfd994c4",
   "run_directory" : "./run",
   "seed_file" : "dummy.osm",
   "started_at" : "20190517T152249Z",
   "steps" : [
      {
         "arguments" : {
            "building_type" : "QuickServiceRestaurant",
            "epw_file" : "CAN_ON_Toronto.Pearson.Intl.AP.716240_CWEC2016.epw",
            "new_auto_zoner" : true,
            "template" : "NECB2017"
         },
         "description" : "This measure creates an NECB prototype building from scratch and uses it as the base for an analysis.",
         "measure_dir_name" : "btap_create_necb_prototype_building",
         "name" : "btap_create_necb_prototype_building",
         "result" : {
            "completed_at" : "20190517T152324Z",
            "measure_class_name" : "BTAPCreateNECBPrototypeBuilding",
            "measure_display_name" : "BTAPCreateNECBPrototypeBuilding",
            "measure_name" : "btap_create_necb_prototype_building",
            "measure_taxonomy" : "Whole Building.Space Types",
            "measure_type" : "ModelMeasure",
            "measure_uid" : "3e9acd53-8602-4749-a655-7cbbe48e8b30",
            "measure_version_id" : "fce385ec-90b4-4b1d-9950-ad7bead32503",
            "measure_version_modified" : "20190401T145206Z",
            "measure_xml_checksum" : "2C38F48B",
            "started_at" : "20190517T152249Z",
            "stderr" : "",
            "stdout" : "[OpenStudio.Measure] <0> OSArgumentVector is deprecated, use OpenStudio::Measure::OSArgumentVector instead.\n[openstudio.EpwFile] <0> Successive data points (1999-Jan-31 to 2004-Feb-01, ending on line 753) are greater than 1 day apart in EPW file '/usr/local/lib/ruby/gems/2.2.0/bundler/gems/openstudio-standards-f0e9e7df79cf/data/weather/CAN_ON_Toronto.Pearson.Intl.AP.716240_CWEC2016.epw'. Data will be treated as typical (TMY)\n[openstudio.setFileExtension] <0> Path p, '/usr/local/lib/ruby/gems/2.2.0/bundler/gems/openstudio-standards-f0e9e7df79cf/data/weather/CAN_ON_Toronto.Pearson.Intl.AP.716240_CWEC2016.ddy', has an unexpected file extension. Was expecting 'idf'.\n[openstudio.setFileExtension] <0> Path p, '/usr/local/lib/ruby/gems/2.2.0/bundler/gems/openstudio-standards-f0e9e7df79cf/data/weather/CAN_ON_Toronto.Pearson.Intl.AP.716240_CWEC2016.ddy', has an unexpected file extension. Was expecting 'idf'.\n[openstudio.EpwFile] <0> Successive data points (1999-Jan-31 to 2004-Feb-01, ending on line 753) are greater than 1 day apart in EPW file '/usr/local/lib/ruby/gems/2.2.0/bundler/gems/openstudio-standards-f0e9e7df79cf/data/weather/CAN_ON_Toronto.Pearson.Intl.AP.716240_CWEC2016.epw'. Data will be treated as typical (TMY)\n[openstudio.setFileExtension] <0> Path p, '/usr/local/lib/ruby/gems/2.2.0/bundler/gems/openstudio-standards-f0e9e7df79cf/data/weather/CAN_ON_Toronto.Pearson.Intl.AP.716240_CWEC2016.ddy', has an unexpected file extension. Was expecting 'idf'.\n[openstudio.weather.Model] <0> Could not find ground temperatures; will use generic temperatures, which will skew results.\n[openstudio.EpwFile] <0> Successive data points (1999-Jan-31 to 2004-Feb-01, ending on line 753) are greater than 1 day apart in EPW file '/usr/local/lib/ruby/gems/2.2.0/bundler/gems/openstudio-standards-f0e9e7df79cf/data/weather/CAN_ON_Toronto.Pearson.Intl.AP.716240_CWEC2016.epw'. Data will be treated as typical (TMY)\n[openstudio.setFileExtension] <0> Path p, '/usr/local/lib/ruby/gems/2.2.0/bundler/gems/openstudio-standards-f0e9e7df79cf/data/weather/CAN_ON_Toronto.Pearson.Intl.AP.716240_CWEC2016.ddy', has an unexpected file extension. Was expecting 'idf'.\n[openstudio.setFileExtension] <0> Path p, '/usr/local/lib/ruby/gems/2.2.0/bundler/gems/openstudio-standards-f0e9e7df79cf/data/weather/CAN_ON_Toronto.Pearson.Intl.AP.716240_CWEC2016.ddy', has an unexpected file extension. Was expecting 'idf'.\n[openstudio.EpwFile] <0> Successive data points (1999-Jan-31 to 2004-Feb-01, ending on line 753) are greater than 1 day apart in EPW file '/usr/local/lib/ruby/gems/2.2.0/bundler/gems/openstudio-standards-f0e9e7df79cf/data/weather/CAN_ON_Toronto.Pearson.Intl.AP.716240_CWEC2016.epw'. Data will be treated as typical (TMY)\n[openstudio.setFileExtension] <0> Path p, '/usr/local/lib/ruby/gems/2.2.0/bundler/gems/openstudio-standards-f0e9e7df79cf/data/weather/CAN_ON_Toronto.Pearson.Intl.AP.716240_CWEC2016.ddy', has an unexpected file extension. Was expecting 'idf'.\n[openstudio.setFileExtension] <0> Path p, '/usr/local/lib/ruby/gems/2.2.0/bundler/gems/openstudio-standards-f0e9e7df79cf/data/weather/CAN_ON_Toronto.Pearson.Intl.AP.716240_CWEC2016.ddy', has an unexpected file extension. Was expecting 'idf'.\n[utilities.idf.WorkspaceObject] <0> Object of type 'Schedule:Constant' and named 'Always Off Discrete', points to an object named OnOff 1 from field 1, but that object cannot be located.\n[utilities.idf.WorkspaceObject] <0> Object of type 'Schedule:Constant' and named 'Always On Continuous', points to an object named Fractional 1 from field 1, but that object cannot be located.\n[openstudio.EpwFile] <0> Successive data points (1999-Jan-31 to 2004-Feb-01, ending on line 753) are greater than 1 day apart in EPW file '/usr/local/lib/ruby/gems/2.2.0/bundler/gems/openstudio-standards-f0e9e7df79cf/data/weather/CAN_ON_Toronto.Pearson.Intl.AP.716240_CWEC2016.epw'. Data will be treated as typical (TMY)\n[openstudio.setFileExtension] <0> Path p, '/usr/local/lib/ruby/gems/2.2.0/bundler/gems/openstudio-standards-f0e9e7df79cf/data/weather/CAN_ON_Toronto.Pearson.Intl.AP.716240_CWEC2016.ddy', has an unexpected file extension. Was expecting 'idf'.\n[openstudio.setFileExtension] <0> Path p, '/usr/local/lib/ruby/gems/2.2.0/bundler/gems/openstudio-standards-f0e9e7df79cf/data/weather/CAN_ON_Toronto.Pearson.Intl.AP.716240_CWEC2016.ddy', has an unexpected file extension. Was expecting 'idf'.\n[openstudio.EpwFile] <0> Successive data points (1999-Jan-31 to 2004-Feb-01, ending on line 753) are greater than 1 day apart in EPW file '/usr/local/lib/ruby/gems/2.2.0/bundler/gems/openstudio-standards-f0e9e7df79cf/data/weather/CAN_ON_Toronto.Pearson.Intl.AP.716240_CWEC2016.epw'. Data will be treated as typical (TMY)\n[openstudio.setFileExtension] <0> Path p, '/usr/local/lib/ruby/gems/2.2.0/bundler/gems/openstudio-standards-f0e9e7df79cf/data/weather/CAN_ON_Toronto.Pearson.Intl.AP.716240_CWEC2016.ddy', has an unexpected file extension. Was expecting 'idf'.\n[openstudio.setFileExtension] <0> Path p, '/usr/local/lib/ruby/gems/2.2.0/bundler/gems/openstudio-standards-f0e9e7df79cf/data/weather/CAN_ON_Toronto.Pearson.Intl.AP.716240_CWEC2016.ddy', has an unexpected file extension. Was expecting 'idf'.\n[utilities.idf.WorkspaceObject] <0> Object of type 'Schedule:Constant' and named 'Always Off Discrete', points to an object named OnOff 1 from field 1, but that object cannot be located.\n[utilities.idf.WorkspaceObject] <0> Object of type 'Schedule:Constant' and named 'Always On Continuous', points to an object named Fractional 1 from field 1, but that object cannot be located.\n[openstudio.standards.Fan] <0> For Fan Constant Volume 1, there is no greater nominal HP.  Use the efficiency of the largest motor category.\n[openstudio.standards.Fan] <0> For Fan Constant Volume 2, there is no greater nominal HP.  Use the efficiency of the largest motor category.\n[openstudio.EpwFile] <0> Successive data points (1999-Jan-31 to 2004-Feb-01, ending on line 753) are greater than 1 day apart in EPW file '/usr/local/lib/ruby/gems/2.2.0/bundler/gems/openstudio-standards-f0e9e7df79cf/data/weather/CAN_ON_Toronto.Pearson.Intl.AP.716240_CWEC2016.epw'. Data will be treated as typical (TMY)\n[openstudio.setFileExtension] <0> Path p, '/usr/local/lib/ruby/gems/2.2.0/bundler/gems/openstudio-standards-f0e9e7df79cf/data/weather/CAN_ON_Toronto.Pearson.Intl.AP.716240_CWEC2016.ddy', has an unexpected file extension. Was expecting 'idf'.\n[openstudio.setFileExtension] <0> Path p, '/usr/local/lib/ruby/gems/2.2.0/bundler/gems/openstudio-standards-f0e9e7df79cf/data/weather/CAN_ON_Toronto.Pearson.Intl.AP.716240_CWEC2016.ddy', has an unexpected file extension. Was expecting 'idf'.\n[openstudio.EpwFile] <0> Successive data points (1999-Jan-31 to 2004-Feb-01, ending on line 753) are greater than 1 day apart in EPW file '/usr/local/lib/ruby/gems/2.2.0/bundler/gems/openstudio-standards-f0e9e7df79cf/data/weather/CAN_ON_Toronto.Pearson.Intl.AP.716240_CWEC2016.epw'. Data will be treated as typical (TMY)\n[openstudio.setFileExtension] <0> Path p, '/usr/local/lib/ruby/gems/2.2.0/bundler/gems/openstudio-standards-f0e9e7df79cf/data/weather/CAN_ON_Toronto.Pearson.Intl.AP.716240_CWEC2016.ddy', has an unexpected file extension. Was expecting 'idf'.\n[openstudio.setFileExtension] <0> Path p, '/usr/local/lib/ruby/gems/2.2.0/bundler/gems/openstudio-standards-f0e9e7df79cf/data/weather/CAN_ON_Toronto.Pearson.Intl.AP.716240_CWEC2016.ddy', has an unexpected file extension. Was expecting 'idf'.\n[openstudio.standards.Fan] <0> For Fan Constant Volume 1, there is no greater nominal HP.  Use the efficiency of the largest motor category.\n[openstudio.standards.Fan] <0> For Fan Constant Volume 2, there is no greater nominal HP.  Use the efficiency of the largest motor category.\n[utilities.idf.WorkspaceObject] <0> Object of type 'Schedule:Constant' and named 'Always Off Discrete', points to an object named OnOff 1 from field 1, but that object cannot be located.\n[utilities.idf.WorkspaceObject] <0> Object of type 'Schedule:Constant' and named 'Always On Continuous', points to an object named Fractional 1 from field 1, but that object cannot be located.\n",
            "step_errors" : [],
            "step_files" : [],
            "step_info" : [
               "Loaded space type map from model",
               "Finished adding geometry",
               "Started adding weather file for climate zone: NECB HDD Method.",
               "Started applying space types (loads)",
               "Space Function - undefined - had no ventilation specification, one has been created.",
               "Space Function - undefined - had no infiltration objects, one has been created.",
               "Space Function - undefined - set infiltration to 0.0 per ft^2 exterior surface area.",
               "Space Function - undefined - set infiltration schedule to Always On.",
               "Space Function Dining area - bar lounge/leisure dining had no people, one has been created.",
               "Space Function Dining area - bar lounge/leisure dining set occupancy to 9.29368029739777 people/1000 ft^2.",
               "Space Function Dining area - bar lounge/leisure dining had no lights, one has been created.",
               "Space Function Dining area - bar lounge/leisure dining set LPD to 0.929023 W/ft^2.",
               "Space Function Dining area - bar lounge/leisure dining had no electric equipment, one has been created.",
               "Space Function Dining area - bar lounge/leisure dining set electric EPD to 0.0929368029739777 W/ft^2.",
               "Space Function Dining area - bar lounge/leisure dining had no ventilation specification, one has been created.",
               "Space Function Dining area - bar lounge/leisure dining set ventilation per area to 0.705 cfm/ft^2.",
               "Space Function Dining area - bar lounge/leisure dining had no infiltration objects, one has been created.",
               "Space Function Dining area - bar lounge/leisure dining set infiltration to 0.0 per ft^2 exterior surface area.",
               "Space Function Dining area - bar lounge/leisure dining set occupancy schedule to NECB-B-Occupancy.",
               "Space Function Dining area - bar lounge/leisure dining set occupant activity schedule to NECB-Activity.",
               "Space Function Dining area - bar lounge/leisure dining set lighting schedule to OS:Schedule:Ruleset,\n  {6ce2f78d-ed24-416a-a5ae-a6d9c5d914fc}, !- Handle\n  NECB-B-Occupancy-NECB-B-Lighting-0.0-0.0-0.67-Light Ruleset, !- Name\n  {374b51c3-0ed2-4543-9830-80d8aefb17be}, !- Schedule Type Limits Name\n  {b2de2056-0c2b-4a37-8aa0-d5a85520187d}; !- Default Day Schedule Name\n\n.",
               "Space Function Dining area - bar lounge/leisure dining set electric equipment schedule to NECB-B-Electric-Equipment.",
               "Space Function Dining area - bar lounge/leisure dining set infiltration schedule to Always On.",
               "Space Function Dining area - bar lounge/leisure dining set heating setpoint schedule to NECB-B-Thermostat Setpoint-Heating.",
               "Space Function Dining area - bar lounge/leisure dining set cooling setpoint schedule to NECB-B-Thermostat Setpoint-Cooling.",
               "Space Function Food preparation area had no people, one has been created.",
               "Space Function Food preparation area set occupancy to 4.646840148698885 people/1000 ft^2.",
               "Space Function Food preparation area had no lights, one has been created.",
               "Space Function Food preparation area set LPD to 1.059086 W/ft^2.",
               "Space Function Food preparation area had no electric equipment, one has been created.",
               "Space Function Food preparation area set electric EPD to 0.929368029739777 W/ft^2.",
               "Space Function Food preparation area had no ventilation specification, one has been created.",
               "Space Function Food preparation area set ventilation per area to 0.27 cfm/ft^2.",
               "Space Function Food preparation area had no infiltration objects, one has been created.",
               "Space Function Food preparation area set infiltration to 0.0 per ft^2 exterior surface area.",
               "Space Function Food preparation area set occupancy schedule to NECB-B-Occupancy.",
               "Space Function Food preparation area set occupant activity schedule to NECB-Activity.",
               "Space Function Food preparation area set lighting schedule to OS:Schedule:Ruleset,\n  {6ce2f78d-ed24-416a-a5ae-a6d9c5d914fc}, !- Handle\n  NECB-B-Occupancy-NECB-B-Lighting-0.0-0.0-0.67-Light Ruleset, !- Name\n  {374b51c3-0ed2-4543-9830-80d8aefb17be}, !- Schedule Type Limits Name\n  {b2de2056-0c2b-4a37-8aa0-d5a85520187d}; !- Default Day Schedule Name\n\n.",
               "Space Function Food preparation area set electric equipment schedule to NECB-B-Electric-Equipment.",
               "Space Function Food preparation area set infiltration schedule to Always On.",
               "Space Function Food preparation area set heating setpoint schedule to NECB-B-Thermostat Setpoint-Heating.",
               "Space Function Food preparation area set cooling setpoint schedule to NECB-B-Thermostat Setpoint-Cooling.",
               "Finished applying space types (loads)",
               "Started applying constructions",
               "Finished applying constructions",
               "Started creating thermal zones",
               "Finished creating thermal zones",
               "This building has no exposed ceilings adjacent to spaces that are not attics or plenums.  No skylights will be added.",
               "Running simulation /mnt/openstudio/analysis_68c8b576-a9a1-447a-a2db-fd41b0db3a06/data_point_b9845925-4d29-4468-8a03-741ecfd994c4/run/000_btap_create_necb_prototype_building/output/QuickServiceRestaurant-NECB2017-CAN_ON_Toronto.Pearson.Intl.AP.716240_CWEC2016.epw/SR0.",
               "Finished run.",
               "Started Adding HVAC",
               "Finished adding HVAC",
               "Started Adding Service Water Heating",
               "Adding service water loop",
               "Adding water heater",
               "Finished adding Service Water Heating",
               "Set sizing factors to 1.3 for heating and 1.3 for cooling.",
               "Running simulation /mnt/openstudio/analysis_68c8b576-a9a1-447a-a2db-fd41b0db3a06/data_point_b9845925-4d29-4468-8a03-741ecfd994c4/run/000_btap_create_necb_prototype_building/output/QuickServiceRestaurant-NECB2017-CAN_ON_Toronto.Pearson.Intl.AP.716240_CWEC2016.epw/SR1.",
               "Finished run.",
               "Started applying prototype HVAC assumptions.",
               "For Fan Constant Volume 1: allowed_hp = 1.01HP; motor eff = 61.5%; total fan eff = 40% based on 1085 cfm.",
               "For Fan Constant Volume 2: allowed_hp = 1.01HP; motor eff = 61.5%; total fan eff = 40% based on 990 cfm.",
               "Sys_3_PSZ Sp-Dining Sys-3 Flr-1 Sch-B HPlcmt-south ZN does not require an economizer because the total cooling capacity of 39574 Btu/hr is less than the minimum capacity of 68243 Btu/hr.",
               "Sys_3_PSZ Sp-Kitchen Sys-3 Flr-1 Sch-B HPlcmt-north ZN does not require an economizer because the total cooling capacity of 34847 Btu/hr is less than the minimum capacity of 68243 Btu/hr.",
               "Finished applying prototype HVAC assumptions.",
               "Started applying HVAC efficiency standards.",
               "For Sys_3_PSZ Sp-Dining Sys-3 Flr-1 Sch-B HPlcmt-south ZN ERV, ERV power is calculated to be 349 W, based on a min OA flow of 882 cfm.",
               "For Sys_3_PSZ Sp-Dining Sys-3 Flr-1 Sch-B HPlcmt-south ZN: No special economizer controls were modeled.",
               "For NECB2017 NECB HDD Method:  Sys_3_PSZ Sp-Dining Sys-3 Flr-1 Sch-B HPlcmt-south ZN: DCV is not required for any system.",
               "For Sys_3_PSZ Sp-Dining Sys-3 Flr-1 Sch-B HPlcmt-south ZN: Annual occupied hours = 5421 hr/yr, assuming a 0.15 occupancy threshold.  This schedule will be used as the HVAC operation schedule.",
               "For Sys_3_PSZ Sp-Dining Sys-3 Flr-1 Sch-B HPlcmt-south ZN: Setting motorized OA damper schedule to Sys_3_PSZ Sp-Dining Sys-3 Flr-1 Sch-B HPlcmt-south ZN Occ Sch.",
               "For Sys_3_PSZ Sp-Kitchen Sys-3 Flr-1 Sch-B HPlcmt-north ZN ERV, ERV power is calculated to be 164 W, based on a min OA flow of 338 cfm.",
               "For Sys_3_PSZ Sp-Kitchen Sys-3 Flr-1 Sch-B HPlcmt-north ZN: No special economizer controls were modeled.",
               "For NECB2017 NECB HDD Method:  Sys_3_PSZ Sp-Kitchen Sys-3 Flr-1 Sch-B HPlcmt-north ZN: DCV is not required for any system.",
               "For Sys_3_PSZ Sp-Kitchen Sys-3 Flr-1 Sch-B HPlcmt-north ZN: Annual occupied hours = 5421 hr/yr, assuming a 0.15 occupancy threshold.  This schedule will be used as the HVAC operation schedule.",
               "For Sys_3_PSZ Sp-Kitchen Sys-3 Flr-1 Sch-B HPlcmt-north ZN: Setting motorized OA damper schedule to Sys_3_PSZ Sp-Kitchen Sys-3 Flr-1 Sch-B HPlcmt-north ZN Occ Sch.",
               "For Fan Constant Volume 1: motor nameplate = 0.6757754235749008HP, motor eff = 61.5%.",
               "For Fan Constant Volume 2: motor nameplate = 0.616439522406678HP, motor eff = 61.5%.",
               "For Service Water Loop Pump: brake hp = 0.0HP, motor nameplate = 0.1HP, motor eff = 70.0%.",
               "For Pump Variable Speed 1: brake hp = 0.06HP, motor nameplate = 0.1HP, motor eff = 70.0%.",
               "For NECB2017: Coil Cooling DX Single Speed 1: AirCooled All Other Single Package Capacity = 35kBtu/hr; SEER = 14.0",
               "For NECB2017: Coil Cooling DX Single Speed 2: AirCooled All Other Single Package Capacity = 40kBtu/hr; SEER = 14.0",
               "For NECB2017: Primary Boiler: Gas Hot Water Capacity = 42kBtu/hr; AFUE = 0.85",
               "For NECB2017: Secondary Boiler: Gas Hot Water Capacity = 0kBtu/hr; AFUE = 0.85",
               "For NECB2017: 16gal NaturalGas Water Heater - 11kBtu/hr 0.82 Therm Eff; thermal efficiency = 0.82, skin-loss UA = 1Btu/hr",
               "For Sys_3_PSZ Sp-Kitchen Sys-3 Flr-1 Sch-B HPlcmt-north ZN ERV: Set sensible and latent effectiveness to 50%.",
               "For Sys_3_PSZ Sp-Dining Sys-3 Flr-1 Sch-B HPlcmt-south ZN ERV: Set sensible and latent effectiveness to 50%.",
               "For NECB2017: Coil Heating Gas 1: Capacity = 69kBtu/hr; AFUE = 0.924",
               "For NECB2017: Coil Heating Gas 2: Capacity = 107kBtu/hr; AFUE = 0.924",
               "Finished applying HVAC efficiency standards.",
               "Started adding daylighting controls.",
               "For attic, daylighting control not applicable because no exterior fenestration is present.",
               "Finished adding daylighting controls.",
               "Running simulation /mnt/openstudio/analysis_68c8b576-a9a1-447a-a2db-fd41b0db3a06/data_point_b9845925-4d29-4468-8a03-741ecfd994c4/run/000_btap_create_necb_prototype_building/output/QuickServiceRestaurant-NECB2017-CAN_ON_Toronto.Pearson.Intl.AP.716240_CWEC2016.epw/SR2.",
               "Finished run.",
               "Total Time = 34sec."
            ],
            "step_result" : "Success",
            "step_values" : [
               {
                  "name" : "building_type",
                  "value" : "QuickServiceRestaurant"
               },
               {
                  "name" : "template",
                  "value" : "NECB2017"
               },
               {
                  "name" : "epw_file",
                  "value" : "CAN_ON_Toronto.Pearson.Intl.AP.716240_CWEC2016.epw"
               },
               {
                  "name" : "new_auto_zoner",
                  "value" : true
               }
            ],
            "step_warnings" : [
               "[openstudio.EpwFile] Successive data points (1999-Jan-31 to 2004-Feb-01, ending on line 753) are greater than 1 day apart in EPW file '/usr/local/lib/ruby/gems/2.2.0/bundler/gems/openstudio-standards-f0e9e7df79cf/data/weather/CAN_ON_Toronto.Pearson.Intl.AP.716240_CWEC2016.epw'. Data will be treated as typical (TMY)",
               "[openstudio.EpwFile] Successive data points (1999-Jan-31 to 2004-Feb-01, ending on line 753) are greater than 1 day apart in EPW file '/usr/local/lib/ruby/gems/2.2.0/bundler/gems/openstudio-standards-f0e9e7df79cf/data/weather/CAN_ON_Toronto.Pearson.Intl.AP.716240_CWEC2016.epw'. Data will be treated as typical (TMY)",
               "[openstudio.weather.Model] Could not find ground temperatures; will use generic temperatures, which will skew results.",
               "[openstudio.EpwFile] Successive data points (1999-Jan-31 to 2004-Feb-01, ending on line 753) are greater than 1 day apart in EPW file '/usr/local/lib/ruby/gems/2.2.0/bundler/gems/openstudio-standards-f0e9e7df79cf/data/weather/CAN_ON_Toronto.Pearson.Intl.AP.716240_CWEC2016.epw'. Data will be treated as typical (TMY)",
               "[openstudio.EpwFile] Successive data points (1999-Jan-31 to 2004-Feb-01, ending on line 753) are greater than 1 day apart in EPW file '/usr/local/lib/ruby/gems/2.2.0/bundler/gems/openstudio-standards-f0e9e7df79cf/data/weather/CAN_ON_Toronto.Pearson.Intl.AP.716240_CWEC2016.epw'. Data will be treated as typical (TMY)",
               "[openstudio.EpwFile] Successive data points (1999-Jan-31 to 2004-Feb-01, ending on line 753) are greater than 1 day apart in EPW file '/usr/local/lib/ruby/gems/2.2.0/bundler/gems/openstudio-standards-f0e9e7df79cf/data/weather/CAN_ON_Toronto.Pearson.Intl.AP.716240_CWEC2016.epw'. Data will be treated as typical (TMY)",
               "[openstudio.EpwFile] Successive data points (1999-Jan-31 to 2004-Feb-01, ending on line 753) are greater than 1 day apart in EPW file '/usr/local/lib/ruby/gems/2.2.0/bundler/gems/openstudio-standards-f0e9e7df79cf/data/weather/CAN_ON_Toronto.Pearson.Intl.AP.716240_CWEC2016.epw'. Data will be treated as typical (TMY)",
               "[openstudio.standards.Fan] For Fan Constant Volume 1, there is no greater nominal HP.  Use the efficiency of the largest motor category.",
               "[openstudio.standards.Fan] For Fan Constant Volume 2, there is no greater nominal HP.  Use the efficiency of the largest motor category.",
               "[openstudio.EpwFile] Successive data points (1999-Jan-31 to 2004-Feb-01, ending on line 753) are greater than 1 day apart in EPW file '/usr/local/lib/ruby/gems/2.2.0/bundler/gems/openstudio-standards-f0e9e7df79cf/data/weather/CAN_ON_Toronto.Pearson.Intl.AP.716240_CWEC2016.epw'. Data will be treated as typical (TMY)",
               "[openstudio.EpwFile] Successive data points (1999-Jan-31 to 2004-Feb-01, ending on line 753) are greater than 1 day apart in EPW file '/usr/local/lib/ruby/gems/2.2.0/bundler/gems/openstudio-standards-f0e9e7df79cf/data/weather/CAN_ON_Toronto.Pearson.Intl.AP.716240_CWEC2016.epw'. Data will be treated as typical (TMY)",
               "[openstudio.standards.Fan] For Fan Constant Volume 1, there is no greater nominal HP.  Use the efficiency of the largest motor category.",
               "[openstudio.standards.Fan] For Fan Constant Volume 2, there is no greater nominal HP.  Use the efficiency of the largest motor category."
            ]
         }
      },
      {
         "arguments" : {
            "clg_cop" : 0,
            "heat_pump_type" : "CCASHP",
            "htg_cop" : 0,
            "zone_clg_eqpt" : "Keep Existing",
            "zone_htg_eqpt" : "Electric Baseboard",
            "zone_term_reheat_eqpt" : "Electric"
         },
         "description" : "Scan all air systems amd delete existing heating and cooling coils. Then add DX heating and cooling coils and supplemental heating electric coils for an air-source heat pump. The zonal heating units can either be deleted, left as is, or replaced with electric baseboards. Zonal cooling units can either be deleted or left as is in the model.",
         "measure_dir_name" : "BTAPHeatPumpAirSystem",
         "name" : "set_heat_pump_air_system",
         "result" : {
            "completed_at" : "20190517T152331Z",
            "measure_class_name" : "SetHeatPumpAirSystem",
            "measure_display_name" : "SetHeatPumpAirSystem",
            "measure_name" : "set_heat_pump_air_system",
            "measure_taxonomy" : "HVAC.Heating",
            "measure_type" : "ModelMeasure",
            "measure_uid" : "95d36ab6-98d7-4fcb-b265-c71e7cf2e28e",
            "measure_version_id" : "05e4ea59-ded6-4b3c-8ddd-f70e82d7aa91",
            "measure_version_modified" : "20190517T150558Z",
            "measure_xml_checksum" : "470FC630",
            "started_at" : "20190517T152324Z",
            "stderr" : "",
            "stdout" : "[utilities.idf.WorkspaceObject] <0> Object of type 'Schedule:Constant' and named 'Always On Continuous', points to an object named Fractional 1 from field 1, but that object cannot be located.\n[openstudio.model.Model] <0> The run completed but had the following severe errors: Orphaned ZoneHVAC object found.  This was object never referenced in the input, and was not used.   -- Object type: ZoneHVAC:Baseboard:Convective:Water   -- Object name: Zone HVAC Baseboard Convective Water 1\\nOrphaned ZoneHVAC object found.  This was object never referenced in the input, and was not used.   -- Object type: ZoneHVAC:Baseboard:Convective:Water   -- Object name: Zone HVAC Baseboard Convective Water 2\n",
            "step_errors" : [],
            "step_files" : [],
            "step_info" : [],
            "step_result" : "Success",
            "step_values" : [
               {
                  "name" : "heat_pump_type",
                  "value" : "CCASHP"
               },
               {
                  "name" : "zone_htg_eqpt",
                  "value" : "Electric Baseboard"
               },
               {
                  "name" : "zone_clg_eqpt",
                  "value" : "Keep Existing"
               },
               {
                  "name" : "zone_term_reheat_eqpt",
                  "value" : "Electric"
               },
               {
                  "name" : "htg_cop",
                  "value" : 0
               },
               {
                  "name" : "clg_cop",
                  "value" : 0
               }
            ],
            "step_warnings" : []
         }
      },
      {
         "arguments" : {},
         "description" : "BTAPUtilityTariffs",
         "measure_dir_name" : "btap_utility_tariffs",
         "name" : "btap_utility_tariffs_model_setup",
         "result" : {
            "completed_at" : "20190517T152332Z",
            "measure_class_name" : "BTAPUtilityTariffsModelSetup",
            "measure_display_name" : "BTAPUtilityTariffsModelSetup",
            "measure_name" : "btap_utility_tariffs_model_setup",
            "measure_taxonomy" : "Economics.Life Cycle Cost Analysis",
            "measure_type" : "EnergyPlusMeasure",
            "measure_uid" : "34c820cf-b55d-4bdf-b654-48e5bd9beef8",
            "measure_version_id" : "20dd95fb-d5b0-4916-ace4-5633a6208092",
            "measure_version_modified" : "20181219T170133Z",
            "measure_xml_checksum" : "D1E2AA62",
            "started_at" : "20190517T152332Z",
            "stderr" : "",
            "stdout" : "[OpenStudio.Measure] <0> OSArgumentVector is deprecated, use OpenStudio::Measure::OSArgumentVector instead.\n",
            "step_errors" : [],
            "step_files" : [],
            "step_info" : [
               "Found Electricity tariff database match for weather_station :Toronto Pearson Intl AP_ON_CAN\n Row Information is Electricity,kWh,TorontoHydro,Toronto Pearson Intl AP_ON_CAN,Ontario,55.08,750,0.094,751,0.11,752,0.11,753,0.11,0.11,1,7.86,2,7.86,3,7.86,4,7.86,7.86\n",
               "Found Gas tariff database match for weather_station :Toronto Pearson Intl AP_ON_CAN\n Row Information is Gas,MJ,Enbridge ,Toronto Pearson Intl AP_ON_CAN,Ontario,122.01,1,0.0105,2,0.0105,3,0.0105,4,0.0105,0.0105,1,0,2,0,3,0,4,0,0\n",
               "Found FuelOil#2 tariff database match for weather_station :Toronto Pearson Intl AP_ON_CAN\n Row Information is FuelOil#2,MJ,NoneOil,Toronto Pearson Intl AP_ON_CAN,Ontario,0,1,0,2,0,3,0,4,0,0,1,0,2,0,3,0,4,0,0\n",
               "added a tariffs \nUtilityCost:Tariff,\n  TorontoHydro,                              !- Name\n  Electricity:Facility,         !- Output Meter Name\n  kWh ,                         !- Conversion Factor Choice\n  ,                                       !- Energy Conversion Factor\n  ,                                       !- Demand Conversion Factor\n  ,                                       !- Time of Use Period Schedule Name\n  ,                                       !- Season Schedule Name\n  ,                                       !- Month Schedule Name\n  QuarterHour,                            !- Demand Window Length\n  ;                      !- Monthly Charge or Variable Name\n\nUtilityCost:Charge:Block,\n  ElectricityBlocksEnergyCharges,           ! Name\n  TorontoHydro,                  ! Tariff Name\n  TotalEnergy,                            ! Source Variable\n  Annual,                                 ! Season\n  EnergyCharges,                          ! Category Variable Name\n  ,                                       ! Remaining Into Variable\n  ,                                       ! Block Size Multiplier Value or Variable Name\n  750,            ! Block Size 1 Value or Variable Name\n  0.094,             ! Block 1 Cost per Unit Value or Variable Name\n  751,            ! Block Size 2 Value or Variable Name\n  0.11,             ! Block 2 Cost per Unit Value or Variable Name\n  752,            ! Block Size 3 Value or Variable Name\n  0.11,             ! Block 3 Cost per Unit Value or Variable Name\n  753,            ! Block Size 4 Value or Variable Name\n  0.11,             ! Block 4 Cost per Unit Value or Variable Name\n  remaining,                              ! Block Size 5 Value or Variable Name\n  0.11;             ! Block 5 Cost per Unit Value or Variable Name\n\nUtilityCost:Charge:Block,\n  ElectricityBlocksDemandCharges,           ! Name\n  TorontoHydro,                  ! Tariff Name\n  TotalDemand,                                 ! Source Variable\n  Annual,                                      ! Season\n  DemandCharges,                               ! Category Variable Name\n  ,                                            ! Remaining Into Variable\n  ,                                            ! Block Size Multiplier Value or Variable Name\n 1,          ! Block Size 1 Value or Variable Name\n 7.86,           ! Block 1 Cost per Unit Value or Variable Name\n 2,          ! Block Size 2 Value or Variable Name\n 7.86,           ! Block 2 Cost per Unit Value or Variable Name\n 3,          ! Block Size 3 Value or Variable Name\n 7.86,           ! Block 3 Cost per Unit Value or Variable Name\n 4,          ! Block Size 4 Value or Variable Name\n 7.86,           ! Block 4 Cost per Unit Value or Variable Name\n remaining,                                   ! Block Size 5 Value or Variable Name\n 7.86;           ! Block 5 Cost per Unit Value or Variable Name\n      \nUtilityCost:Tariff,\n  Enbridge ,                              !- Name\n  Gas:Facility,         !- Output Meter Name\n  MJ ,                         !- Conversion Factor Choice\n  ,                                       !- Energy Conversion Factor\n  ,                                       !- Demand Conversion Factor\n  ,                                       !- Time of Use Period Schedule Name\n  ,                                       !- Season Schedule Name\n  ,                                       !- Month Schedule Name\n  QuarterHour,                            !- Demand Window Length\n  ;                      !- Monthly Charge or Variable Name\n\nUtilityCost:Charge:Block,\n  GasBlocksEnergyCharges,           ! Name\n  Enbridge ,                  ! Tariff Name\n  TotalEnergy,                            ! Source Variable\n  Annual,                                 ! Season\n  EnergyCharges,                          ! Category Variable Name\n  ,                                       ! Remaining Into Variable\n  ,                                       ! Block Size Multiplier Value or Variable Name\n  1,            ! Block Size 1 Value or Variable Name\n  0.0105,             ! Block 1 Cost per Unit Value or Variable Name\n  2,            ! Block Size 2 Value or Variable Name\n  0.0105,             ! Block 2 Cost per Unit Value or Variable Name\n  3,            ! Block Size 3 Value or Variable Name\n  0.0105,             ! Block 3 Cost per Unit Value or Variable Name\n  4,            ! Block Size 4 Value or Variable Name\n  0.0105,             ! Block 4 Cost per Unit Value or Variable Name\n  remaining,                              ! Block Size 5 Value or Variable Name\n  0.0105;             ! Block 5 Cost per Unit Value or Variable Name\n\nUtilityCost:Charge:Block,\n  GasBlocksDemandCharges,           ! Name\n  Enbridge ,                  ! Tariff Name\n  TotalDemand,                                 ! Source Variable\n  Annual,                                      ! Season\n  DemandCharges,                               ! Category Variable Name\n  ,                                            ! Remaining Into Variable\n  ,                                            ! Block Size Multiplier Value or Variable Name\n 1,          ! Block Size 1 Value or Variable Name\n 0,           ! Block 1 Cost per Unit Value or Variable Name\n 2,          ! Block Size 2 Value or Variable Name\n 0,           ! Block 2 Cost per Unit Value or Variable Name\n 3,          ! Block Size 3 Value or Variable Name\n 0,           ! Block 3 Cost per Unit Value or Variable Name\n 4,          ! Block Size 4 Value or Variable Name\n 0,           ! Block 4 Cost per Unit Value or Variable Name\n remaining,                                   ! Block Size 5 Value or Variable Name\n 0;           ! Block 5 Cost per Unit Value or Variable Name\n      \nUtilityCost:Tariff,\n  NoneOil,                              !- Name\n  FuelOil#2:Facility,         !- Output Meter Name\n  MJ ,                         !- Conversion Factor Choice\n  ,                                       !- Energy Conversion Factor\n  ,                                       !- Demand Conversion Factor\n  ,                                       !- Time of Use Period Schedule Name\n  ,                                       !- Season Schedule Name\n  ,                                       !- Month Schedule Name\n  QuarterHour,                            !- Demand Window Length\n  ;                      !- Monthly Charge or Variable Name\n\nUtilityCost:Charge:Block,\n  FuelOil#2BlocksEnergyCharges,           ! Name\n  NoneOil,                  ! Tariff Name\n  TotalEnergy,                            ! Source Variable\n  Annual,                                 ! Season\n  EnergyCharges,                          ! Category Variable Name\n  ,                                       ! Remaining Into Variable\n  ,                                       ! Block Size Multiplier Value or Variable Name\n  1,            ! Block Size 1 Value or Variable Name\n  0,             ! Block 1 Cost per Unit Value or Variable Name\n  2,            ! Block Size 2 Value or Variable Name\n  0,             ! Block 2 Cost per Unit Value or Variable Name\n  3,            ! Block Size 3 Value or Variable Name\n  0,             ! Block 3 Cost per Unit Value or Variable Name\n  4,            ! Block Size 4 Value or Variable Name\n  0,             ! Block 4 Cost per Unit Value or Variable Name\n  remaining,                              ! Block Size 5 Value or Variable Name\n  0;             ! Block 5 Cost per Unit Value or Variable Name\n\nUtilityCost:Charge:Block,\n  FuelOil#2BlocksDemandCharges,           ! Name\n  NoneOil,                  ! Tariff Name\n  TotalDemand,                                 ! Source Variable\n  Annual,                                      ! Season\n  DemandCharges,                               ! Category Variable Name\n  ,                                            ! Remaining Into Variable\n  ,                                            ! Block Size Multiplier Value or Variable Name\n 1,          ! Block Size 1 Value or Variable Name\n 0,           ! Block 1 Cost per Unit Value or Variable Name\n 2,          ! Block Size 2 Value or Variable Name\n 0,           ! Block 2 Cost per Unit Value or Variable Name\n 3,          ! Block Size 3 Value or Variable Name\n 0,           ! Block 3 Cost per Unit Value or Variable Name\n 4,          ! Block Size 4 Value or Variable Name\n 0,           ! Block 4 Cost per Unit Value or Variable Name\n remaining,                                   ! Block Size 5 Value or Variable Name\n 0;           ! Block 5 Cost per Unit Value or Variable Name\n      ",
               "set the simulation timestep to 15 min to match the demand window of the tariffs",
               "removed existing lifecycle parameters named Life Cycle Cost Parameters",
               "added lifecycle cost parameters named FEMP LifeCycle Cost Parameters",
               "removed existing fuel escalation rates named ",
               "removed existing fuel escalation rates named ",
               "removed existing fuel escalation rates named ",
               "removed existing fuel escalation rates named ",
               "removed existing fuel escalation rates named ",
               "added fuel escalation rates named ",
               "added fuel escalation rates named ",
               "added fuel escalation rates named ",
               "added fuel escalation rates named ",
               "added fuel escalation rates named "
            ],
            "step_result" : "Success",
            "step_values" : [],
            "step_warnings" : []
         }
      },
      {
         "arguments" : {
            "generate_hourly_report" : "false",
            "output_diet" : false
         },
         "description" : "This measure creates BTAP result values used for NRCan analyses.",
         "measure_dir_name" : "btap_results",
         "name" : "btap_results",
         "result" : {
            "completed_at" : "20190517T152412Z",
            "measure_class_name" : "BTAPResults",
            "measure_display_name" : "BTAP Results",
            "measure_name" : "btap_results",
            "measure_taxonomy" : "Reporting.QAQC",
            "measure_type" : "ReportingMeasure",
            "measure_uid" : "bf37e1c6-de70-457b-a3ac-21aa57b7bc58",
            "measure_version_id" : "61896a0d-9067-467e-b478-421a39c02254",
            "measure_version_modified" : "20190401T145207Z",
            "measure_xml_checksum" : "15BF4E57",
            "started_at" : "20190517T152401Z",
            "stderr" : "",
            "stdout" : "[openstudio.EpwFile] <0> Successive data points (1999-Jan-31 to 2004-Feb-01, ending on line 753) are greater than 1 day apart in EPW file '/usr/local/lib/ruby/gems/2.2.0/bundler/gems/openstudio-standards-f0e9e7df79cf/data/weather/CAN_ON_Toronto.Pearson.Intl.AP.716240_CWEC2016.epw'. Data will be treated as typical (TMY)\n[openstudio.setFileExtension] <0> Path p, '/usr/local/lib/ruby/gems/2.2.0/bundler/gems/openstudio-standards-f0e9e7df79cf/data/weather/CAN_ON_Toronto.Pearson.Intl.AP.716240_CWEC2016.ddy', has an unexpected file extension. Was expecting 'idf'.\n[openstudio.setFileExtension] <0> Path p, '/usr/local/lib/ruby/gems/2.2.0/bundler/gems/openstudio-standards-f0e9e7df79cf/data/weather/CAN_ON_Toronto.Pearson.Intl.AP.716240_CWEC2016.ddy', has an unexpected file extension. Was expecting 'idf'.\n[openstudio.EpwFile] <0> Successive data points (1999-Jan-31 to 2004-Feb-01, ending on line 753) are greater than 1 day apart in EPW file '/usr/local/lib/ruby/gems/2.2.0/bundler/gems/openstudio-standards-f0e9e7df79cf/data/weather/CAN_ON_Toronto.Pearson.Intl.AP.716240_CWEC2016.epw'. Data will be treated as typical (TMY)\n[openstudio.setFileExtension] <0> Path p, '/usr/local/lib/ruby/gems/2.2.0/bundler/gems/openstudio-standards-f0e9e7df79cf/data/weather/CAN_ON_Toronto.Pearson.Intl.AP.716240_CWEC2016.ddy', has an unexpected file extension. Was expecting 'idf'.\n[openstudio.setFileExtension] <0> Path p, '/usr/local/lib/ruby/gems/2.2.0/bundler/gems/openstudio-standards-f0e9e7df79cf/data/weather/CAN_ON_Toronto.Pearson.Intl.AP.716240_CWEC2016.ddy', has an unexpected file extension. Was expecting 'idf'.\n",
            "step_errors" : [],
            "step_files" : [
               "/mnt/openstudio/analysis_68c8b576-a9a1-447a-a2db-fd41b0db3a06/data_point_b9845925-4d29-4468-8a03-741ecfd994c4/run/003_btap_results/qaqc.json",
               "/mnt/openstudio/analysis_68c8b576-a9a1-447a-a2db-fd41b0db3a06/data_point_b9845925-4d29-4468-8a03-741ecfd994c4/run/003_btap_results/cost_results.json"
            ],
            "step_final_condition" : "Saved BTAP results to runner.",
            "step_info" : [],
            "step_initial_condition" : "Gathering data from EnergyPlus SQL file and OSM model.",
            "step_result" : "Success",
            "step_values" : [
               {
                  "name" : "result_costing",
                  "value" : "{\n  \"rs_means_city\": \"TORONTO\",\n  \"rs_means_prov\": \"ONTARIO\",\n  \"envelope\": {\n    \"exterior_wall_cost\": 6394.15,\n    \"exterior_wall_area_m2\": 111.4,\n    \"exterior_wall_cost_per_m2\": 57.4,\n    \"exterior_roof_cost\": 28383.58,\n    \"exterior_roof_area_m2\": 258.8,\n    \"exterior_roof_cost_per_m2\": 109.67,\n    \"exterior_floor_cost\": 0.0,\n    \"exterior_floor_area_m2\": 0.0,\n    \"exterior_floor_cost_per_m2\": 0.0,\n    \"exterior_fixed_window_cost\": 5226.08,\n    \"exterior_fixed_window_area_m2\": 74.39999999999999,\n    \"exterior_fixed_window_cost_per_m2\": 70.24,\n    \"exterior_operable_window_cost\": 0.0,\n    \"exterior_operable_window_area_m2\": 0.0,\n    \"exterior_operable_window_cost_per_m2\": 0.0,\n    \"exterior_skylight_cost\": 0.0,\n    \"exterior_skylight_area_m2\": 0.0,\n    \"exterior_skylight_cost_per_m2\": 0.0,\n    \"exterior_tubular_daylight_diffuser_cost\": 0.0,\n    \"exterior_tubular_daylight_diffuser_area_m2\": 0.0,\n    \"exterior_tubular_daylight_diffuser_cost_per_m2\": 0.0,\n    \"exterior_tubular_daylight_dome_cost\": 0.0,\n    \"exterior_tubular_daylight_dome_area_m2\": 0.0,\n    \"exterior_tubular_daylight_dome_cost_per_m2\": 0.0,\n    \"exterior_door_cost\": 0.0,\n    \"exterior_door_area_m2\": 0.0,\n    \"exterior_door_cost_per_m2\": 0.0,\n    \"exterior_glass_door_cost\": 0.0,\n    \"exterior_glass_door_area_m2\": 0.0,\n    \"exterior_glass_door_cost_per_m2\": 0.0,\n    \"exterior_overhead_door_cost\": 0.0,\n    \"exterior_overhead_door_area_m2\": 0.0,\n    \"exterior_overhead_door_cost_per_m2\": 0.0,\n    \"ground_contact_wall_cost\": 0.0,\n    \"ground_contact_wall_area_m2\": 0.0,\n    \"ground_contact_wall_cost_per_m2\": 0.0,\n    \"ground_contact_roof_cost\": 0.0,\n    \"ground_contact_roof_area_m2\": 0.0,\n    \"ground_contact_roof_cost_per_m2\": 0.0,\n    \"ground_contact_floor_cost\": 20722.9,\n    \"ground_contact_floor_area_m2\": 232.4,\n    \"ground_contact_floor_cost_per_m2\": 89.17,\n    \"construction_costs\": [\n      {\n        \"name\": \"BTAP-ExteriorRoof-IEAD-4\",\n        \"conductance\": 0.15599999999999992,\n        \"area\": 258.8566891728746,\n        \"cost\": 28383.582236869,\n        \"cost_per_area\": 109.64979242979243,\n        \"note\": \"Surf #1: OK / 2: OK / 3: OK / 4: OK\"\n      },\n      {\n        \"name\": \"BTAP-ExteriorWall-SteelFramed-1\",\n        \"conductance\": 0.27799999999999997,\n        \"area\": 55.766698367999936,\n        \"cost\": 2631.0688170095486,\n        \"cost_per_area\": 47.17992805755396,\n        \"note\": \"Surf #1: OK / 2: OK / 3: OK\"\n      },\n      {\n        \"name\": \"BTAP-ExteriorWindow-FixedWindow-6\",\n        \"conductance\": 1.9000000000000001,\n        \"area\": 74.35559782400014,\n        \"cost\": 5226.063625797265,\n        \"cost_per_area\": 70.28473684210526,\n        \"note\": \"Surf #1: OK / 2: OK / 3: OK / 1: OK / 2: OK / 3: OK\"\n      },\n      {\n        \"name\": \"BTAP-GroundContactFloor-Unheated-1\",\n        \"conductance\": 0.7570000000000018,\n        \"area\": 232.34295184,\n        \"cost\": 20722.902905488787,\n        \"cost_per_area\": 89.19101156879228,\n        \"note\": \"Surf #1: OK / 1: OK\"\n      },\n      {\n        \"name\": \"BTAP-ExteriorWall-Mass-2\",\n        \"conductance\": 0.27799999999999997,\n        \"area\": 55.766698367999936,\n        \"cost\": 3763.079300644103,\n        \"cost_per_area\": 67.47896882494005,\n        \"note\": \"Surf #1: OK / 2: OK / 3: OK\"\n      }\n    ],\n    \"total_envelope_cost\": 60726.7\n  },\n  \"lighting\": {\n    \"fixture_report\": [\n      {\n        \"fixture_type\": \"Nil\",\n        \"fixture_description\": \"\",\n        \"floor_area_ft2\": 2500.9,\n        \"cost\": 0.0,\n        \"cost_per_ft2\": 0.0,\n        \"spaces\": [\n          \"attic\"\n        ],\n        \"number_of_spaces\": 1\n      },\n      {\n        \"fixture_type\": \"7\",\n        \"fixture_description\": \"High Bay (10 ft above work plane) Fluorescent Lighting 1.5 W/ft2 (16 W/m2), 103FC, 7 Fixtures per 1000 ft2\",\n        \"floor_area_ft2\": 2501.0,\n        \"cost\": 15008.637482235605,\n        \"cost_per_ft2\": 6.001054571065816,\n        \"spaces\": [\n          \"Dining\",\n          \"Kitchen\"\n        ],\n        \"number_of_spaces\": 2\n      }\n    ],\n    \"space_report\": [\n      {\n        \"space\": \"attic\",\n        \"zone\": \"Sp-attic Sys-0 Flr-2 Sch-- undefined - HPlcmt-core ZN\",\n        \"building_type\": \"Space Function\",\n        \"space_type\": \"- undefined -\",\n        \"zone_multiplier\": 1,\n        \"fixture_type\": \"Nil\",\n        \"fixture_desciption\": \"\",\n        \"height_avg_ft\": 3.6,\n        \"floor_area_ft2\": 2500.9,\n        \"cost\": 0.0,\n        \"cost_per_ft2\": 0.0,\n        \"note\": \"\"\n      },\n      {\n        \"space\": \"Dining\",\n        \"zone\": \"Sp-Dining Sys-3 Flr-1 Sch-B HPlcmt-south ZN\",\n        \"building_type\": \"Space Function\",\n        \"space_type\": \"Dining area - bar lounge/leisure dining\",\n        \"zone_multiplier\": 1,\n        \"fixture_type\": \"7\",\n        \"fixture_desciption\": \"High Bay (10 ft above work plane) Fluorescent Lighting 1.5 W/ft2 (16 W/m2), 103FC, 7 Fixtures per 1000 ft2\",\n        \"height_avg_ft\": 10.0,\n        \"floor_area_ft2\": 1250.5,\n        \"cost\": 7504.32,\n        \"cost_per_ft2\": 6.001053564362739,\n        \"note\": \"\"\n      },\n      {\n        \"space\": \"Kitchen\",\n        \"zone\": \"Sp-Kitchen Sys-3 Flr-1 Sch-B HPlcmt-north ZN\",\n        \"building_type\": \"Space Function\",\n        \"space_type\": \"Food preparation area\",\n        \"zone_multiplier\": 1,\n        \"fixture_type\": \"7\",\n        \"fixture_desciption\": \"High Bay (10 ft above work plane) Fluorescent Lighting 1.5 W/ft2 (16 W/m2), 103FC, 7 Fixtures per 1000 ft2\",\n        \"height_avg_ft\": 10.0,\n        \"floor_area_ft2\": 1250.5,\n        \"cost\": 7504.32,\n        \"cost_per_ft2\": 6.001053564362739,\n        \"note\": \"\"\n      }\n    ],\n    \"total_lighting_cost\": 15008.63\n  },\n  \"heating_and_cooling\": {\n    \"plant_equipment\": [\n      {\n        \"type\": \"boilers\",\n        \"nom_flr2flr_hght_ft\": 13.6,\n        \"ht_roof_ft\": 13.6,\n        \"longest_distance_to_ext_ft\": 37.5,\n        \"wiring_and_gas_connections_distance_ft\": 37.5,\n        \"equipment_cost\": 7330.85,\n        \"flue_cost\": 1830.53,\n        \"wiring_and_gas_connections_cost\": 1205.95,\n        \"pump_cost\": 21618.88,\n        \"piping_cost\": 1879.66,\n        \"total_cost\": 33865.86\n      },\n      {\n        \"type\": \"chillers\",\n        \"nom_flr2flr_hght_ft\": 13.6,\n        \"ht_roof_ft\": 13.6,\n        \"longest_distance_to_ext_ft\": 37.5,\n        \"wiring_and_gas_connections_distance_ft\": 37.5,\n        \"equipment_cost\": 0.0,\n        \"flue_cost\": 0.0,\n        \"wiring_and_gas_connections_cost\": 0.0,\n        \"pump_cost\": 0.0,\n        \"piping_cost\": 0.0,\n        \"total_cost\": 0.0\n      },\n      {\n        \"type\": \"cooling_towers\",\n        \"nom_flr2flr_hght_ft\": 13.6,\n        \"ht_roof_ft\": 13.6,\n        \"longest_distance_to_ext_ft\": 37.5,\n        \"wiring_and_gas_connections_distance_ft\": 37.5,\n        \"equipment_cost\": 0.0,\n        \"wiring_and_gas_connections_cost\": 0.0,\n        \"pump_cost\": 0.0,\n        \"piping_cost\": 0.0,\n        \"total_cost\": 0.0\n      }\n    ],\n    \"zonal_systems\": [\n      {\n        \"systype\": null,\n        \"zone_number\": 2,\n        \"zone_name\": \"Sp-Dining Sys-3 Flr-1 Sch-B HPlcmt-south ZN\",\n        \"zone_multiple\": 1,\n        \"heat_capacity(kW)\": 6.5,\n        \"cool_capacity(kW)\": 0.0,\n        \"heat_cost\": 0.0,\n        \"cool_cost\": 0.0,\n        \"heatcool_cost\": 0.0,\n        \"num_units\": null,\n        \"cummultive_cost\": 0.0\n      },\n      {\n        \"systype\": null,\n        \"zone_number\": 3,\n        \"zone_name\": \"Sp-Kitchen Sys-3 Flr-1 Sch-B HPlcmt-north ZN\",\n        \"zone_multiple\": 1,\n        \"heat_capacity(kW)\": 6.0,\n        \"cool_capacity(kW)\": 0.0,\n        \"heat_cost\": 0.0,\n        \"cool_cost\": 0.0,\n        \"heatcool_cost\": 0.0,\n        \"num_units\": null,\n        \"cummultive_cost\": 0.0\n      }\n    ]\n  },\n  \"shw\": {\n  },\n  \"ventilation\": {\n  },\n  \"totals\": {\n    \"envelope\": 60726.7,\n    \"lighting\": 15008.63,\n    \"heating_and_cooling\": 33865.86,\n    \"shw\": 0.0,\n    \"ventilation\": 115782.14,\n    \"grand_total\": 225383.34\n  },\n  \"zonal systems\": {\n  }\n}"
               },
               {
                  "name" : "model_osm_zip",
[...]
               },
               {
                  "name" : "geo_city",
                  "value" : "Toronto Pearson Intl AP"
               },
               {
                  "name" : "geo_province",
                  "value" : "ON"
               },
               {
                  "name" : "geo_country",
                  "value" : "CAN"
               },
               {
                  "name" : "geo_latitude_deg",
                  "value" : "43.677"
               },
               {
                  "name" : "geo_longitude_deg",
                  "value" : "-79.631"
               },
               {
                  "name" : "geo_heating_degree_days_dd",
                  "value" : "3890.0"
               },
               {
                  "name" : "geo_cooling_degree_days_dd",
                  "value" : "382.0"
               },
               {
                  "name" : "geo_necb_climate_zone",
                  "value" : "5"
               },
               {
                  "name" : "qaqc_unmet_hours_heating_hours",
                  "value" : "0.0"
               },
               {
                  "name" : "qaqc_unmet_hours_cooling_hours",
                  "value" : "62.0"
               },
               {
                  "name" : "envelope_conditioned_floor_area_m_2",
                  "value" : "232.34295184"
               },
               {
                  "name" : "envelope_exterior_surface_area_m_2",
                  "value" : "444.74568373287457"
               },
               {
                  "name" : "envelope_building_volume_m_3",
                  "value" : "961.3388783481578"
               },
               {
                  "name" : "envelope_outdoor_walls_average_conductance_w_per_m_2_k",
                  "value" : "0.278"
               },
               {
                  "name" : "envelope_outdoor_roofs_average_conductance_w_per_m_2_k",
                  "value" : "0.156"
               },
               {
                  "name" : "envelope_outdoor_floors_average_conductance_w_per_m_2_k",
                  "value" : ""
               },
               {
                  "name" : "envelope_ground_walls_average_conductance_w_per_m_2_k",
                  "value" : ""
               },
               {
                  "name" : "envelope_ground_roofs_average_conductance_w_per_m_2_k",
                  "value" : ""
               },
               {
                  "name" : "envelope_ground_floors_average_conductance_w_per_m_2_k",
                  "value" : "0.757"
               },
               {
                  "name" : "envelope_outdoor_windows_average_conductance_w_per_m_2_k",
                  "value" : "1.9"
               },
               {
                  "name" : "envelope_outdoor_doors_average_conductance_w_per_m_2_k",
                  "value" : ""
               },
               {
                  "name" : "envelope_outdoor_overhead_doors_average_conductance_w_per_m_2_k",
                  "value" : ""
               },
               {
                  "name" : "envelope_skylights_average_conductance_w_per_m_2_k",
                  "value" : ""
               },
               {
                  "name" : "envelope_fdwr_ratio",
                  "value" : "40.0"
               },
               {
                  "name" : "envelope_srr_ratio",
                  "value" : "0.0"
               },
               {
                  "name" : "peak_electricy_power_watts",
                  "value" : "24437.15"
               },
               {
                  "name" : "peak_natural_gas_watts",
                  "value" : "2723.09"
               },
               {
                  "name" : "costing_information",
                  "value" : "{\"rs_means_city\"=>\"TORONTO\", \"rs_means_prov\"=>\"ONTARIO\", \"envelope\"=>{\"exterior_wall_cost\"=>6394.15, \"exterior_wall_area_m2\"=>111.4, \"exterior_wall_cost_per_m2\"=>57.4, \"exterior_roof_cost\"=>28383.58, \"exterior_roof_area_m2\"=>258.8, \"exterior_roof_cost_per_m2\"=>109.67, \"exterior_floor_cost\"=>0.0, \"exterior_floor_area_m2\"=>0.0, \"exterior_floor_cost_per_m2\"=>0.0, \"exterior_fixed_window_cost\"=>5226.08, \"exterior_fixed_window_area_m2\"=>74.39999999999999, \"exterior_fixed_window_cost_per_m2\"=>70.24, \"exterior_operable_window_cost\"=>0.0, \"exterior_operable_window_area_m2\"=>0.0, \"exterior_operable_window_cost_per_m2\"=>0.0, \"exterior_skylight_cost\"=>0.0, \"exterior_skylight_area_m2\"=>0.0, \"exterior_skylight_cost_per_m2\"=>0.0, \"exterior_tubular_daylight_diffuser_cost\"=>0.0, \"exterior_tubular_daylight_diffuser_area_m2\"=>0.0, \"exterior_tubular_daylight_diffuser_cost_per_m2\"=>0.0, \"exterior_tubular_daylight_dome_cost\"=>0.0, \"exterior_tubular_daylight_dome_area_m2\"=>0.0, \"exterior_tubular_daylight_dome_cost_per_m2\"=>0.0, \"exterior_door_cost\"=>0.0, \"exterior_door_area_m2\"=>0.0, \"exterior_door_cost_per_m2\"=>0.0, \"exterior_glass_door_cost\"=>0.0, \"exterior_glass_door_area_m2\"=>0.0, \"exterior_glass_door_cost_per_m2\"=>0.0, \"exterior_overhead_door_cost\"=>0.0, \"exterior_overhead_door_area_m2\"=>0.0, \"exterior_overhead_door_cost_per_m2\"=>0.0, \"ground_contact_wall_cost\"=>0.0, \"ground_contact_wall_area_m2\"=>0.0, \"ground_contact_wall_cost_per_m2\"=>0.0, \"ground_contact_roof_cost\"=>0.0, \"ground_contact_roof_area_m2\"=>0.0, \"ground_contact_roof_cost_per_m2\"=>0.0, \"ground_contact_floor_cost\"=>20722.9, \"ground_contact_floor_area_m2\"=>232.4, \"ground_contact_floor_cost_per_m2\"=>89.17, \"construction_costs\"=>[{\"name\"=>\"BTAP-ExteriorRoof-IEAD-4\", \"conductance\"=>0.15599999999999992, \"area\"=>258.8566891728746, \"cost\"=>28383.582236869, \"cost_per_area\"=>109.64979242979243, \"note\"=>\"Surf #1: OK / 2: OK / 3: OK / 4: OK\"}, {\"name\"=>\"BTAP-ExteriorWall-SteelFramed-1\", \"conductance\"=>0.27799999999999997, \"area\"=>55.766698367999936, \"cost\"=>2631.0688170095486, \"cost_per_area\"=>47.17992805755396, \"note\"=>\"Surf #1: OK / 2: OK / 3: OK\"}, {\"name\"=>\"BTAP-ExteriorWindow-FixedWindow-6\", \"conductance\"=>1.9000000000000001, \"area\"=>74.35559782400014, \"cost\"=>5226.063625797265, \"cost_per_area\"=>70.28473684210526, \"note\"=>\"Surf #1: OK / 2: OK / 3: OK / 1: OK / 2: OK / 3: OK\"}, {\"name\"=>\"BTAP-GroundContactFloor-Unheated-1\", \"conductance\"=>0.7570000000000018, \"area\"=>232.34295184, \"cost\"=>20722.902905488787, \"cost_per_area\"=>89.19101156879228, \"note\"=>\"Surf #1: OK / 1: OK\"}, {\"name\"=>\"BTAP-ExteriorWall-Mass-2\", \"conductance\"=>0.27799999999999997, \"area\"=>55.766698367999936, \"cost\"=>3763.079300644103, \"cost_per_area\"=>67.47896882494005, \"note\"=>\"Surf #1: OK / 2: OK / 3: OK\"}], \"total_envelope_cost\"=>60726.7}, \"lighting\"=>{\"fixture_report\"=>[{\"fixture_type\"=>\"Nil\", \"fixture_description\"=>\"\", \"floor_area_ft2\"=>2500.9, \"cost\"=>0.0, \"cost_per_ft2\"=>0.0, \"spaces\"=>[\"attic\"], \"number_of_spaces\"=>1}, {\"fixture_type\"=>\"7\", \"fixture_description\"=>\"High Bay (10 ft above work plane) Fluorescent Lighting 1.5 W/ft2 (16 W/m2), 103FC, 7 Fixtures per 1000 ft2\", \"floor_area_ft2\"=>2501.0, \"cost\"=>15008.637482235605, \"cost_per_ft2\"=>6.001054571065816, \"spaces\"=>[\"Dining\", \"Kitchen\"], \"number_of_spaces\"=>2}], \"space_report\"=>[{\"space\"=>\"attic\", \"zone\"=>\"Sp-attic Sys-0 Flr-2 Sch-- undefined - HPlcmt-core ZN\", \"building_type\"=>\"Space Function\", \"space_type\"=>\"- undefined -\", \"zone_multiplier\"=>1, \"fixture_type\"=>\"Nil\", \"fixture_desciption\"=>\"\", \"height_avg_ft\"=>3.6, \"floor_area_ft2\"=>2500.9, \"cost\"=>0.0, \"cost_per_ft2\"=>0.0, \"note\"=>\"\"}, {\"space\"=>\"Dining\", \"zone\"=>\"Sp-Dining Sys-3 Flr-1 Sch-B HPlcmt-south ZN\", \"building_type\"=>\"Space Function\", \"space_type\"=>\"Dining area - bar lounge/leisure dining\", \"zone_multiplier\"=>1, \"fixture_type\"=>\"7\", \"fixture_desciption\"=>\"High Bay (10 ft above work plane) Fluorescent Lighting 1.5 W/ft2 (16 W/m2), 103FC, 7 Fixtures per 1000 ft2\", \"height_avg_ft\"=>10.0, \"floor_area_ft2\"=>1250.5, \"cost\"=>7504.32, \"cost_per_ft2\"=>6.001053564362739, \"note\"=>\"\"}, {\"space\"=>\"Kitchen\", \"zone\"=>\"Sp-Kitchen Sys-3 Flr-1 Sch-B HPlcmt-north ZN\", \"building_type\"=>\"Space Function\", \"space_type\"=>\"Food preparation area\", \"zone_multiplier\"=>1, \"fixture_type\"=>\"7\", \"fixture_desciption\"=>\"High Bay (10 ft above work plane) Fluorescent Lighting 1.5 W/ft2 (16 W/m2), 103FC, 7 Fixtures per 1000 ft2\", \"height_avg_ft\"=>10.0, \"floor_area_ft2\"=>1250.5, \"cost\"=>7504.32, \"cost_per_ft2\"=>6.001053564362739, \"note\"=>\"\"}], \"total_lighting_cost\"=>15008.63}, \"heating_and_cooling\"=>{\"plant_equipment\"=>[{\"type\"=>\"boilers\", \"nom_flr2flr_hght_ft\"=>13.6, \"ht_roof_ft\"=>13.6, \"longest_distance_to_ext_ft\"=>37.5, \"wiring_and_gas_connections_distance_ft\"=>37.5, \"equipment_cost\"=>7330.85, \"flue_cost\"=>1830.53, \"wiring_and_gas_connections_cost\"=>1205.95, \"pump_cost\"=>21618.88, \"piping_cost\"=>1879.66, \"total_cost\"=>33865.86}, {\"type\"=>\"chillers\", \"nom_flr2flr_hght_ft\"=>13.6, \"ht_roof_ft\"=>13.6, \"longest_distance_to_ext_ft\"=>37.5, \"wiring_and_gas_connections_distance_ft\"=>37.5, \"equipment_cost\"=>0.0, \"flue_cost\"=>0.0, \"wiring_and_gas_connections_cost\"=>0.0, \"pump_cost\"=>0.0, \"piping_cost\"=>0.0, \"total_cost\"=>0.0}, {\"type\"=>\"cooling_towers\", \"nom_flr2flr_hght_ft\"=>13.6, \"ht_roof_ft\"=>13.6, \"longest_distance_to_ext_ft\"=>37.5, \"wiring_and_gas_connections_distance_ft\"=>37.5, \"equipment_cost\"=>0.0, \"wiring_and_gas_connections_cost\"=>0.0, \"pump_cost\"=>0.0, \"piping_cost\"=>0.0, \"total_cost\"=>0.0}], \"zonal_systems\"=>[{\"systype\"=>nil, \"zone_number\"=>2, \"zone_name\"=>\"Sp-Dining Sys-3 Flr-1 Sch-B HPlcmt-south ZN\", \"zone_multiple\"=>1, \"heat_capacity(kW)\"=>6.5, \"cool_capacity(kW)\"=>0.0, \"heat_cost\"=>0.0, \"cool_cost\"=>0.0, \"heatcool_cost\"=>0.0, \"num_units\"=>nil, \"cummultive_cost\"=>0.0}, {\"systype\"=>nil, \"zone_number\"=>3, \"zone_name\"=>\"Sp-Kitchen Sys-3 Flr-1 Sch-B HPlcmt-north ZN\", \"zone_multiple\"=>1, \"heat_capacity(kW)\"=>6.0, \"cool_capacity(kW)\"=>0.0, \"heat_cost\"=>0.0, \"cool_cost\"=>0.0, \"heatcool_cost\"=>0.0, \"num_units\"=>nil, \"cummultive_cost\"=>0.0}]}, \"shw\"=>{}, \"ventilation\"=>{}, \"totals\"=>{\"envelope\"=>60726.7, \"lighting\"=>15008.63, \"heating_and_cooling\"=>33865.86, \"shw\"=>0.0, \"ventilation\"=>115782.14, \"grand_total\"=>225383.34}, \"zonal systems\"=>{}}"
               },
               {
                  "name" : "total_envelope_cost",
                  "value" : 60726.699999999997
               },
               {
                  "name" : "total_lighting_cost",
                  "value" : 15008.629999999999
               },
               {
                  "name" : "total_heating_cooling_cost",
                  "value" : 0
               },
               {
                  "name" : "total_shw_cost",
                  "value" : 0
               },
               {
                  "name" : "total_ventilation_cost",
                  "value" : 115782.14
               },
               {
                  "name" : "total_capital_cost",
                  "value" : 0
               },
               {
                  "name" : "total_neb_utility_costs",
                  "value" : 5850.0451000000003
               },
               {
                  "name" : "total_capital_and_energy_costs",
                  "value" : 5850.0451000000003
               },
               {
                  "name" : "total_envelope_and_energy_costs",
                  "value" : 66576.7451
               }
            ],
            "step_warnings" : []
         }
      },
      {
         "arguments" : {},
         "description" : "Removes a significant portion of the saved results from each run, helping to alleviate memory problems.",
         "measure_dir_name" : "ServerDirectoryCleanup",
         "name" : "server_directory_cleanup",
         "result" : {
            "completed_at" : "20190517T152412Z",
            "measure_class_name" : "ServerDirectoryCleanup",
            "measure_display_name" : "Server Directory Cleanup",
            "measure_name" : "server_directory_cleanup",
            "measure_taxonomy" : "Calibration",
            "measure_type" : "ReportingMeasure",
            "measure_uid" : "ec7d04ad-0b7b-495b-825a-e1b6d28d1d3f",
            "measure_version_id" : "2e0a3f67-3aa6-42cc-b9ff-8aa66615c0a1",
            "measure_version_modified" : "20190226T195336Z",
            "measure_xml_checksum" : "5F1EDF75",
            "started_at" : "20190517T152412Z",
            "stderr" : "",
            "stdout" : "[OpenStudio.Measure] <0> OSArgumentVector is deprecated, use OpenStudio::Measure::OSArgumentVector instead.\n",
            "step_errors" : [],
            "step_files" : [],
            "step_final_condition" : "The following files were in the local run directory following to the execution of this measure: eplusout.mtr, 000_btap_create_necb_prototype_building, sqlite.err, run.log, in.epw, pre-preprocess.idf, measure_attributes.json, eplusout.rdd, 002_btap_utility_tariffs, 001_BTAPHeatPumpAirSystem, 003_ServerDirectoryCleanup, eplusout.mtd, stdout-expandobject, 004_ServerDirectoryCleanup, in.idf, ., eplusout.end, eplustbl.htm, stdout-energyplus, eplusout.err, 003_btap_results, started.job, ...",
            "step_info" : [
               "Deleted ./../eplusout.sql from the run directory.",
               "Deleted ./../eplusout.audit from the run directory.",
               "Deleted ./../in.osm from the run directory.",
               "Deleted ./../eplusout.bnd from the run directory.",
               "Deleted ./../eplusout.eio from the run directory.",
               "Deleted ./../eplusout.shd from the run directory.",
               "Deleted ./../eplusout.mdd from the run directory.",
               "Deleted ./../eplusssz.csv from the run directory.",
               "Deleted ./../epluszsz.csv from the run directory.",
               "Deleted ./../eplusout.eso from the run directory."
            ],
            "step_initial_condition" : "The following files were in the local run directory prior to the execution of this measure: in.osm, eplusout.sql, eplusssz.csv, eplusout.mtr, 000_btap_create_necb_prototype_building, sqlite.err, run.log, in.epw, pre-preprocess.idf, epluszsz.csv, eplusout.bnd, measure_attributes.json, eplusout.rdd, 002_btap_utility_tariffs, 001_BTAPHeatPumpAirSystem, 003_ServerDirectoryCleanup, eplusout.mtd, eplusout.eio, stdout-expandobject, eplusout.eso, 004_ServerDirectoryCleanup, in.idf, eplusout.shd, ., eplusout.end, eplustbl.htm, stdout-energyplus, eplusout.err, eplusout.audit, 003_btap_results, eplusout.mdd, started.job, ...",
            "step_result" : "Success",
            "step_values" : [],
            "step_warnings" : []
         }
      }
   ],
   "updated_at" : "20190517T152414Z",
   "weather_file" : "dummy.epw"
}
