{
   "completed_at" : "20190517T152618Z",
   "completed_status" : "Success",
   "created_at" : "2019-05-17 15:21:40 +0000",
   "current_step" : 5,
   "description" : "",
   "eplusout_err" : "Program Version,EnergyPlus, Version 8.9.0-eba93e8e1b, YMD=2019.05.17 15:24,\n   ************* Beginning Zone Sizing Calculations\n   ** Warning ** ProcessScheduleInput: Schedule:Day:Interval=\"ECONOMIZER MAX OA FRACTION 100 PCT DEFAULT\", Blank Schedule Type Limits Name input -- will not be validated.\n   ** Warning ** ProcessScheduleInput: Schedule:Day:Interval=\"SCHEDULE DAY 1\", Blank Schedule Type Limits Name input -- will not be validated.\n   ** Warning ** ProcessScheduleInput: Schedule:Day:Interval=\"SCHEDULE DAY 10\", Blank Schedule Type Limits Name input -- will not be validated.\n   ** Warning ** ProcessScheduleInput: Schedule:Day:Interval=\"SCHEDULE DAY 11\", Blank Schedule Type Limits Name input -- will not be validated.\n   ** Warning ** ProcessScheduleInput: Schedule:Day:Interval=\"SCHEDULE DAY 12\", Blank Schedule Type Limits Name input -- will not be validated.\n   ** Warning ** ProcessScheduleInput: Schedule:Day:Interval=\"SCHEDULE DAY 13\", Blank Schedule Type Limits Name input -- will not be validated.\n   ** Warning ** ProcessScheduleInput: Schedule:Day:Interval=\"SCHEDULE DAY 14\", Blank Schedule Type Limits Name input -- will not be validated.\n   ** Warning ** ProcessScheduleInput: Schedule:Day:Interval=\"SCHEDULE DAY 15\", Blank Schedule Type Limits Name input -- will not be validated.\n   ** Warning ** ProcessScheduleInput: Schedule:Day:Interval=\"SCHEDULE DAY 16\", Blank Schedule Type Limits Name input -- will not be validated.\n   ** Warning ** ProcessScheduleInput: Schedule:Day:Interval=\"SCHEDULE DAY 17\", Blank Schedule Type Limits Name input -- will not be validated.\n   ** Warning ** ProcessScheduleInput: Schedule:Day:Interval=\"SCHEDULE DAY 18\", Blank Schedule Type Limits Name input -- will not be validated.\n   ** Warning ** ProcessScheduleInput: Schedule:Day:Interval=\"SCHEDULE DAY 19\", Blank Schedule Type Limits Name input -- will not be validated.\n   ** Warning ** ProcessScheduleInput: Schedule:Day:Interval=\"SCHEDULE DAY 2\", Blank Schedule Type Limits Name input -- will not be validated.\n   ** Warning ** ProcessScheduleInput: Schedule:Day:Interval=\"SCHEDULE DAY 20\", Blank Schedule Type Limits Name input -- will not be validated.\n   ** Warning ** ProcessScheduleInput: Schedule:Day:Interval=\"SCHEDULE DAY 21\", Blank Schedule Type Limits Name input -- will not be validated.\n   ** Warning ** ProcessScheduleInput: Schedule:Day:Interval=\"SCHEDULE DAY 22\", Blank Schedule Type Limits Name input -- will not be validated.\n   ** Warning ** ProcessScheduleInput: Schedule:Day:Interval=\"SCHEDULE DAY 23\", Blank Schedule Type Limits Name input -- will not be validated.\n   ** Warning ** ProcessScheduleInput: Schedule:Day:Interval=\"SCHEDULE DAY 24\", Blank Schedule Type Limits Name input -- will not be validated.\n   ** Warning ** ProcessScheduleInput: Schedule:Day:Interval=\"SCHEDULE DAY 25\", Blank Schedule Type Limits Name input -- will not be validated.\n   ** Warning ** ProcessScheduleInput: Schedule:Day:Interval=\"SCHEDULE DAY 26\", Blank Schedule Type Limits Name input -- will not be validated.\n   ** Warning ** ProcessScheduleInput: Schedule:Day:Interval=\"SCHEDULE DAY 27\", Blank Schedule Type Limits Name input -- will not be validated.\n   ** Warning ** ProcessScheduleInput: Schedule:Day:Interval=\"SCHEDULE DAY 28\", Blank Schedule Type Limits Name input -- will not be validated.\n   ** Warning ** ProcessScheduleInput: Schedule:Day:Interval=\"SCHEDULE DAY 29\", Blank Schedule Type Limits Name input -- will not be validated.\n   ** Warning ** ProcessScheduleInput: Schedule:Day:Interval=\"SCHEDULE DAY 30\", Blank Schedule Type Limits Name input -- will not be validated.\n   ** Warning ** ProcessScheduleInput: Schedule:Day:Interval=\"SCHEDULE DAY 31\", Blank Schedule Type Limits Name input -- will not be validated.\n   ** Warning ** ProcessScheduleInput: Schedule:Day:Interval=\"SCHEDULE DAY 32\", Blank Schedule Type Limits Name input -- will not be validated.\n   ** Warning ** ProcessScheduleInput: Schedule:Day:Interval=\"SCHEDULE DAY 33\", Blank Schedule Type Limits Name input -- will not be validated.\n   ** Warning ** ProcessScheduleInput: Schedule:Day:Interval=\"SCHEDULE DAY 34\", Blank Schedule Type Limits Name input -- will not be validated.\n   ** Warning ** ProcessScheduleInput: Schedule:Day:Interval=\"SCHEDULE DAY 35\", Blank Schedule Type Limits Name input -- will not be validated.\n   ** Warning ** ProcessScheduleInput: Schedule:Day:Interval=\"SCHEDULE DAY 36\", Blank Schedule Type Limits Name input -- will not be validated.\n   ** Warning ** ProcessScheduleInput: Schedule:Day:Interval=\"SCHEDULE DAY 37\", Blank Schedule Type Limits Name input -- will not be validated.\n   ** Warning ** ProcessScheduleInput: Schedule:Day:Interval=\"SCHEDULE DAY 38\", Blank Schedule Type Limits Name input -- will not be validated.\n   ** Warning ** ProcessScheduleInput: Schedule:Day:Interval=\"SCHEDULE DAY 39\", Blank Schedule Type Limits Name input -- will not be validated.\n   ** Warning ** ProcessScheduleInput: Schedule:Day:Interval=\"SCHEDULE DAY 40\", Blank Schedule Type Limits Name input -- will not be validated.\n   ** Warning ** ProcessScheduleInput: Schedule:Day:Interval=\"SCHEDULE DAY 41\", Blank Schedule Type Limits Name input -- will not be validated.\n   ** Warning ** ProcessScheduleInput: Schedule:Day:Interval=\"SCHEDULE DAY 42\", Blank Schedule Type Limits Name input -- will not be validated.\n   ** Warning ** ProcessScheduleInput: Schedule:Day:Interval=\"SCHEDULE DAY 43\", Blank Schedule Type Limits Name input -- will not be validated.\n   ** Warning ** ProcessScheduleInput: Schedule:Day:Interval=\"SCHEDULE DAY 44\", Blank Schedule Type Limits Name input -- will not be validated.\n   ** Warning ** ProcessScheduleInput: Schedule:Day:Interval=\"SCHEDULE DAY 45\", Blank Schedule Type Limits Name input -- will not be validated.\n   ** Warning ** ProcessScheduleInput: Schedule:Day:Interval=\"SCHEDULE DAY 46\", Blank Schedule Type Limits Name input -- will not be validated.\n   ** Warning ** ProcessScheduleInput: Schedule:Day:Interval=\"SCHEDULE DAY 47\", Blank Schedule Type Limits Name input -- will not be validated.\n   ** Warning ** ProcessScheduleInput: Schedule:Day:Interval=\"SCHEDULE DAY 48\", Blank Schedule Type Limits Name input -- will not be validated.\n   ** Warning ** ProcessScheduleInput: Schedule:Day:Interval=\"SCHEDULE DAY 49\", Blank Schedule Type Limits Name input -- will not be validated.\n   ** Warning ** ProcessScheduleInput: Schedule:Day:Interval=\"SCHEDULE DAY 50\", Blank Schedule Type Limits Name input -- will not be validated.\n   ** Warning ** ProcessScheduleInput: Schedule:Day:Interval=\"SCHEDULE DAY 51\", Blank Schedule Type Limits Name input -- will not be validated.\n   ** Warning ** ProcessScheduleInput: Schedule:Day:Interval=\"SCHEDULE DAY 52\", Blank Schedule Type Limits Name input -- will not be validated.\n   ** Warning ** ProcessScheduleInput: Schedule:Day:Interval=\"SCHEDULE DAY 53\", Blank Schedule Type Limits Name input -- will not be validated.\n   ** Warning ** ProcessScheduleInput: Schedule:Day:Interval=\"SCHEDULE DAY 54\", Blank Schedule Type Limits Name input -- will not be validated.\n   ** Warning ** ProcessScheduleInput: Schedule:Day:Interval=\"SCHEDULE DAY 55\", Blank Schedule Type Limits Name input -- will not be validated.\n   ** Warning ** ProcessScheduleInput: Schedule:Day:Interval=\"SCHEDULE DAY 56\", Blank Schedule Type Limits Name input -- will not be validated.\n   ** Warning ** ProcessScheduleInput: Schedule:Day:Interval=\"SCHEDULE DAY 57\", Blank Schedule Type Limits Name input -- will not be validated.\n   ** Warning ** ProcessScheduleInput: Schedule:Day:Interval=\"SCHEDULE DAY 58\", Blank Schedule Type Limits Name input -- will not be validated.\n   ** Warning ** ProcessScheduleInput: Schedule:Day:Interval=\"SCHEDULE DAY 59\", Blank Schedule Type Limits Name input -- will not be validated.\n   ** Warning ** ProcessScheduleInput: Schedule:Day:Interval=\"SCHEDULE DAY 6\", Blank Schedule Type Limits Name input -- will not be validated.\n   ** Warning ** ProcessScheduleInput: Schedule:Day:Interval=\"SCHEDULE DAY 60\", Blank Schedule Type Limits Name input -- will not be validated.\n   ** Warning ** ProcessScheduleInput: Schedule:Day:Interval=\"SCHEDULE DAY 61\", Blank Schedule Type Limits Name input -- will not be validated.\n   ** Warning ** ProcessScheduleInput: Schedule:Day:Interval=\"SCHEDULE DAY 62\", Blank Schedule Type Limits Name input -- will not be validated.\n   ** Warning ** ProcessScheduleInput: Schedule:Day:Interval=\"SCHEDULE DAY 63\", Blank Schedule Type Limits Name input -- will not be validated.\n   ** Warning ** ProcessScheduleInput: Schedule:Day:Interval=\"SCHEDULE DAY 64\", Blank Schedule Type Limits Name input -- will not be validated.\n   ** Warning ** ProcessScheduleInput: Schedule:Day:Interval=\"SCHEDULE DAY 65\", Blank Schedule Type Limits Name input -- will not be validated.\n   ** Warning ** ProcessScheduleInput: Schedule:Day:Interval=\"SCHEDULE DAY 66\", Blank Schedule Type Limits Name input -- will not be validated.\n   ** Warning ** ProcessScheduleInput: Schedule:Day:Interval=\"SCHEDULE DAY 67\", Blank Schedule Type Limits Name input -- will not be validated.\n   ** Warning ** ProcessScheduleInput: Schedule:Day:Interval=\"SCHEDULE DAY 68\", Blank Schedule Type Limits Name input -- will not be validated.\n   ** Warning ** ProcessScheduleInput: Schedule:Day:Interval=\"SCHEDULE DAY 69\", Blank Schedule Type Limits Name input -- will not be validated.\n   ** Warning ** ProcessScheduleInput: Schedule:Day:Interval=\"SCHEDULE DAY 7\", Blank Schedule Type Limits Name input -- will not be validated.\n   ** Warning ** ProcessScheduleInput: Schedule:Day:Interval=\"SCHEDULE DAY 70\", Blank Schedule Type Limits Name input -- will not be validated.\n   ** Warning ** ProcessScheduleInput: Schedule:Day:Interval=\"SCHEDULE DAY 71\", Blank Schedule Type Limits Name input -- will not be validated.\n   ** Warning ** ProcessScheduleInput: Schedule:Day:Interval=\"SCHEDULE DAY 72\", Blank Schedule Type Limits Name input -- will not be validated.\n   ** Warning ** ProcessScheduleInput: Schedule:Day:Interval=\"SCHEDULE DAY 73\", Blank Schedule Type Limits Name input -- will not be validated.\n   ** Warning ** ProcessScheduleInput: Schedule:Day:Interval=\"SCHEDULE DAY 74\", Blank Schedule Type Limits Name input -- will not be validated.\n   ** Warning ** ProcessScheduleInput: Schedule:Day:Interval=\"SCHEDULE DAY 75\", Blank Schedule Type Limits Name input -- will not be validated.\n   ** Warning ** ProcessScheduleInput: Schedule:Day:Interval=\"SCHEDULE DAY 76\", Blank Schedule Type Limits Name input -- will not be validated.\n   ** Warning ** ProcessScheduleInput: Schedule:Day:Interval=\"SCHEDULE DAY 77\", Blank Schedule Type Limits Name input -- will not be validated.\n   ** Warning ** ProcessScheduleInput: Schedule:Day:Interval=\"SCHEDULE DAY 78\", Blank Schedule Type Limits Name input -- will not be validated.\n   ** Warning ** ProcessScheduleInput: Schedule:Day:Interval=\"SCHEDULE DAY 79\", Blank Schedule Type Limits Name input -- will not be validated.\n   ** Warning ** ProcessScheduleInput: Schedule:Day:Interval=\"SCHEDULE DAY 8\", Blank Schedule Type Limits Name input -- will not be validated.\n   ** Warning ** ProcessScheduleInput: Schedule:Day:Interval=\"SCHEDULE DAY 80\", Blank Schedule Type Limits Name input -- will not be validated.\n   ** Warning ** ProcessScheduleInput: Schedule:Day:Interval=\"SCHEDULE DAY 81\", Blank Schedule Type Limits Name input -- will not be validated.\n   ** Warning ** ProcessScheduleInput: Schedule:Day:Interval=\"SCHEDULE DAY 9\", Blank Schedule Type Limits Name input -- will not be validated.\n   ** Warning ** ProcessScheduleInput: Schedule:Year=\"ECONOMIZER MAX OA FRACTION 100 PCT\", Blank Schedule Type Limits Name input -- will not be validated.\n   ** Warning ** ProcessScheduleInput: Schedule:Year=\"SCHEDULE RULESET 10\", Blank Schedule Type Limits Name input -- will not be validated.\n   ** Warning ** ProcessScheduleInput: Schedule:Year=\"SCHEDULE RULESET 11\", Blank Schedule Type Limits Name input -- will not be validated.\n   ** Warning ** ProcessScheduleInput: Schedule:Year=\"SCHEDULE RULESET 12\", Blank Schedule Type Limits Name input -- will not be validated.\n   ** Warning ** ProcessScheduleInput: Schedule:Year=\"SCHEDULE RULESET 13\", Blank Schedule Type Limits Name input -- will not be validated.\n   ** Warning ** ProcessScheduleInput: Schedule:Year=\"SCHEDULE RULESET 14\", Blank Schedule Type Limits Name input -- will not be validated.\n   ** Warning ** ProcessScheduleInput: Schedule:Year=\"SCHEDULE RULESET 15\", Blank Schedule Type Limits Name input -- will not be validated.\n   ** Warning ** ProcessScheduleInput: Schedule:Year=\"SCHEDULE RULESET 16\", Blank Schedule Type Limits Name input -- will not be validated.\n   ** Warning ** ProcessScheduleInput: Schedule:Year=\"SCHEDULE RULESET 17\", Blank Schedule Type Limits Name input -- will not be validated.\n   ** Warning ** ProcessScheduleInput: Schedule:Year=\"SCHEDULE RULESET 18\", Blank Schedule Type Limits Name input -- will not be validated.\n   ** Warning ** ProcessScheduleInput: Schedule:Year=\"SCHEDULE RULESET 19\", Blank Schedule Type Limits Name input -- will not be validated.\n   ** Warning ** ProcessScheduleInput: Schedule:Year=\"SCHEDULE RULESET 20\", Blank Schedule Type Limits Name input -- will not be validated.\n   ** Warning ** ProcessScheduleInput: Schedule:Year=\"SCHEDULE RULESET 21\", Blank Schedule Type Limits Name input -- will not be validated.\n   ** Warning ** ProcessScheduleInput: Schedule:Year=\"SCHEDULE RULESET 22\", Blank Schedule Type Limits Name input -- will not be validated.\n   ** Warning ** ProcessScheduleInput: Schedule:Year=\"SCHEDULE RULESET 23\", Blank Schedule Type Limits Name input -- will not be validated.\n   ** Warning ** ProcessScheduleInput: Schedule:Year=\"SCHEDULE RULESET 24\", Blank Schedule Type Limits Name input -- will not be validated.\n   ** Warning ** ProcessScheduleInput: Schedule:Year=\"SCHEDULE RULESET 25\", Blank Schedule Type Limits Name input -- will not be validated.\n   ** Warning ** ProcessScheduleInput: Schedule:Year=\"SCHEDULE RULESET 26\", Blank Schedule Type Limits Name input -- will not be validated.\n   ** Warning ** ProcessScheduleInput: Schedule:Year=\"SCHEDULE RULESET 27\", Blank Schedule Type Limits Name input -- will not be validated.\n   ** Warning ** ProcessScheduleInput: Schedule:Year=\"SCHEDULE RULESET 28\", Blank Schedule Type Limits Name input -- will not be validated.\n   ** Warning ** ProcessScheduleInput: Schedule:Year=\"SCHEDULE RULESET 29\", Blank Schedule Type Limits Name input -- will not be validated.\n   ** Warning ** ProcessScheduleInput: Schedule:Year=\"SCHEDULE RULESET 3\", Blank Schedule Type Limits Name input -- will not be validated.\n   ** Warning ** ProcessScheduleInput: Schedule:Year=\"SCHEDULE RULESET 30\", Blank Schedule Type Limits Name input -- will not be validated.\n   ** Warning ** ProcessScheduleInput: Schedule:Year=\"SCHEDULE RULESET 31\", Blank Schedule Type Limits Name input -- will not be validated.\n   ** Warning ** ProcessScheduleInput: Schedule:Year=\"SCHEDULE RULESET 32\", Blank Schedule Type Limits Name input -- will not be validated.\n   ** Warning ** ProcessScheduleInput: Schedule:Year=\"SCHEDULE RULESET 33\", Blank Schedule Type Limits Name input -- will not be validated.\n   ** Warning ** ProcessScheduleInput: Schedule:Year=\"SCHEDULE RULESET 34\", Blank Schedule Type Limits Name input -- will not be validated.\n   ** Warning ** ProcessScheduleInput: Schedule:Year=\"SCHEDULE RULESET 35\", Blank Schedule Type Limits Name input -- will not be validated.\n   ** Warning ** ProcessScheduleInput: Schedule:Year=\"SCHEDULE RULESET 36\", Blank Schedule Type Limits Name input -- will not be validated.\n   ** Warning ** ProcessScheduleInput: Schedule:Year=\"SCHEDULE RULESET 37\", Blank Schedule Type Limits Name input -- will not be validated.\n   ** Warning ** ProcessScheduleInput: Schedule:Year=\"SCHEDULE RULESET 38\", Blank Schedule Type Limits Name input -- will not be validated.\n   ** Warning ** ProcessScheduleInput: Schedule:Year=\"SCHEDULE RULESET 39\", Blank Schedule Type Limits Name input -- will not be validated.\n   ** Warning ** ProcessScheduleInput: Schedule:Year=\"SCHEDULE RULESET 4\", Blank Schedule Type Limits Name input -- will not be validated.\n   ** Warning ** ProcessScheduleInput: Schedule:Year=\"SCHEDULE RULESET 40\", Blank Schedule Type Limits Name input -- will not be validated.\n   ** Warning ** ProcessScheduleInput: Schedule:Year=\"SCHEDULE RULESET 41\", Blank Schedule Type Limits Name input -- will not be validated.\n   ** Warning ** ProcessScheduleInput: Schedule:Year=\"SCHEDULE RULESET 42\", Blank Schedule Type Limits Name input -- will not be validated.\n   ** Warning ** ProcessScheduleInput: Schedule:Year=\"SCHEDULE RULESET 43\", Blank Schedule Type Limits Name input -- will not be validated.\n   ** Warning ** ProcessScheduleInput: Schedule:Year=\"SCHEDULE RULESET 44\", Blank Schedule Type Limits Name input -- will not be validated.\n   ** Warning ** ProcessScheduleInput: Schedule:Year=\"SCHEDULE RULESET 45\", Blank Schedule Type Limits Name input -- will not be validated.\n   ** Warning ** ProcessScheduleInput: Schedule:Year=\"SCHEDULE RULESET 46\", Blank Schedule Type Limits Name input -- will not be validated.\n   ** Warning ** ProcessScheduleInput: Schedule:Year=\"SCHEDULE RULESET 47\", Blank Schedule Type Limits Name input -- will not be validated.\n   ** Warning ** ProcessScheduleInput: Schedule:Year=\"SCHEDULE RULESET 48\", Blank Schedule Type Limits Name input -- will not be validated.\n   ** Warning ** ProcessScheduleInput: Schedule:Year=\"SCHEDULE RULESET 49\", Blank Schedule Type Limits Name input -- will not be validated.\n   ** Warning ** ProcessScheduleInput: Schedule:Year=\"SCHEDULE RULESET 5\", Blank Schedule Type Limits Name input -- will not be validated.\n   ** Warning ** ProcessScheduleInput: Schedule:Year=\"SCHEDULE RULESET 50\", Blank Schedule Type Limits Name input -- will not be validated.\n   ** Warning ** ProcessScheduleInput: Schedule:Year=\"SCHEDULE RULESET 51\", Blank Schedule Type Limits Name input -- will not be validated.\n   ** Warning ** ProcessScheduleInput: Schedule:Year=\"SCHEDULE RULESET 52\", Blank Schedule Type Limits Name input -- will not be validated.\n   ** Warning ** ProcessScheduleInput: Schedule:Year=\"SCHEDULE RULESET 53\", Blank Schedule Type Limits Name input -- will not be validated.\n   ** Warning ** ProcessScheduleInput: Schedule:Year=\"SCHEDULE RULESET 54\", Blank Schedule Type Limits Name input -- will not be validated.\n   ** Warning ** ProcessScheduleInput: Schedule:Year=\"SCHEDULE RULESET 55\", Blank Schedule Type Limits Name input -- will not be validated.\n   ** Warning ** ProcessScheduleInput: Schedule:Year=\"SCHEDULE RULESET 56\", Blank Schedule Type Limits Name input -- will not be validated.\n   ** Warning ** ProcessScheduleInput: Schedule:Year=\"SCHEDULE RULESET 57\", Blank Schedule Type Limits Name input -- will not be validated.\n   ** Warning ** ProcessScheduleInput: Schedule:Year=\"SCHEDULE RULESET 58\", Blank Schedule Type Limits Name input -- will not be validated.\n   ** Warning ** ProcessScheduleInput: Schedule:Year=\"SCHEDULE RULESET 59\", Blank Schedule Type Limits Name input -- will not be validated.\n   ** Warning ** ProcessScheduleInput: Schedule:Year=\"SCHEDULE RULESET 6\", Blank Schedule Type Limits Name input -- will not be validated.\n   ** Warning ** ProcessScheduleInput: Schedule:Year=\"SCHEDULE RULESET 60\", Blank Schedule Type Limits Name input -- will not be validated.\n   ** Warning ** ProcessScheduleInput: Schedule:Year=\"SCHEDULE RULESET 61\", Blank Schedule Type Limits Name input -- will not be validated.\n   ** Warning ** ProcessScheduleInput: Schedule:Year=\"SCHEDULE RULESET 62\", Blank Schedule Type Limits Name input -- will not be validated.\n   ** Warning ** ProcessScheduleInput: Schedule:Year=\"SCHEDULE RULESET 63\", Blank Schedule Type Limits Name input -- will not be validated.\n   ** Warning ** ProcessScheduleInput: Schedule:Year=\"SCHEDULE RULESET 64\", Blank Schedule Type Limits Name input -- will not be validated.\n   ** Warning ** ProcessScheduleInput: Schedule:Year=\"SCHEDULE RULESET 65\", Blank Schedule Type Limits Name input -- will not be validated.\n   ** Warning ** ProcessScheduleInput: Schedule:Year=\"SCHEDULE RULESET 66\", Blank Schedule Type Limits Name input -- will not be validated.\n   ** Warning ** ProcessScheduleInput: Schedule:Year=\"SCHEDULE RULESET 67\", Blank Schedule Type Limits Name input -- will not be validated.\n   ** Warning ** ProcessScheduleInput: Schedule:Year=\"SCHEDULE RULESET 68\", Blank Schedule Type Limits Name input -- will not be validated.\n   ** Warning ** ProcessScheduleInput: Schedule:Year=\"SCHEDULE RULESET 69\", Blank Schedule Type Limits Name input -- will not be validated.\n   ** Warning ** ProcessScheduleInput: Schedule:Year=\"SCHEDULE RULESET 7\", Blank Schedule Type Limits Name input -- will not be validated.\n   ** Warning ** ProcessScheduleInput: Schedule:Year=\"SCHEDULE RULESET 70\", Blank Schedule Type Limits Name input -- will not be validated.\n   ** Warning ** ProcessScheduleInput: Schedule:Year=\"SCHEDULE RULESET 71\", Blank Schedule Type Limits Name input -- will not be validated.\n   ** Warning ** ProcessScheduleInput: Schedule:Year=\"SCHEDULE RULESET 72\", Blank Schedule Type Limits Name input -- will not be validated.\n   ** Warning ** ProcessScheduleInput: Schedule:Year=\"SCHEDULE RULESET 73\", Blank Schedule Type Limits Name input -- will not be validated.\n   ** Warning ** ProcessScheduleInput: Schedule:Year=\"SCHEDULE RULESET 74\", Blank Schedule Type Limits Name input -- will not be validated.\n   ** Warning ** ProcessScheduleInput: Schedule:Year=\"SCHEDULE RULESET 8\", Blank Schedule Type Limits Name input -- will not be validated.\n   ** Warning ** ProcessScheduleInput: Schedule:Year=\"SCHEDULE RULESET 9\", Blank Schedule Type Limits Name input -- will not be validated.\n   ** Warning ** ProcessScheduleInput: Schedule:Constant=\"ALWAYS ON CONTINUOUS\", Blank Schedule Type Limits Name input -- will not be validated.\n   ** Warning ** CheckUsedConstructions: There are 17 nominally unused constructions in input.\n   **   ~~~   ** For explicit details on each unused construction, use Output:Diagnostics,DisplayExtraWarnings;\n   ** Warning ** GetInternalHeatGains: People Combination of ZoneList and Object Name generate a name too long.\n   **   ~~~   ** Object Name=\"SPACE FUNCTION CONFERENCE/MEETING/MULTI-PURPOSE ROOM PEOPLE\".\n   **   ~~~   ** ZoneList/Zone Name=\"SP-OFFICE SYS-3 FLR-1 SCH-C HPLCMT-SOUTH ZN\".\n   **   ~~~   ** Item length=[102] > Maximum Length=[100]. You may need to shorten the names.\n   **   ~~~   ** Shortening the Object Name by [3] characters will assure uniqueness for this ZoneList.\n   **   ~~~   ** name that will be used (may be needed in reporting)=\"SP-OFFICE SYS-3 FLR-1 SCH-C HPLCMT-SOUTH ZN SPACE FUNCTION CONFERENCE/MEETING/MULTI-PURPOSE ROOM PEOPLE\".\n   ** Warning ** GetInternalHeatGains: People Combination of ZoneList and Object Name generate a name too long.\n   **   ~~~   ** Object Name=\"SPACE FUNCTION CORRIDOR/TRANSITION AREA OTHER-SCH-G PEOPLE\".\n   **   ~~~   ** ZoneList/Zone Name=\"SP-G CORRIDOR SYS-1 FLR-1 SCH-G HPLCMT-EAST ZN\".\n   **   ~~~   ** Item length=[104] > Maximum Length=[100]. You may need to shorten the names.\n   **   ~~~   ** Shortening the Object Name by [5] characters will assure uniqueness for this ZoneList.\n   **   ~~~   ** name that will be used (may be needed in reporting)=\"SP-G CORRIDOR SYS-1 FLR-1 SCH-G HPLCMT-EAST ZN SPACE FUNCTION CORRIDOR/TRANSITION AREA OTHER-SCH-G PEOPLE\".\n   ** Warning ** GetInternalHeatGains: People Combination of ZoneList and Object Name generate a name too long.\n   **   ~~~   ** Object Name=\"SPACE FUNCTION CORRIDOR/TRANSITION AREA OTHER-SCH-G PEOPLE\".\n   **   ~~~   ** ZoneList/Zone Name=\"SP-M CORRIDOR SYS-1 FLR-2 SCH-G HPLCMT-EAST ZN\".\n   **   ~~~   ** Item length=[104] > Maximum Length=[100]. You may need to shorten the names.\n   **   ~~~   ** Shortening the Object Name by [5] characters will assure uniqueness for this ZoneList.\n   **   ~~~   ** name that will be used (may be needed in reporting)=\"SP-M CORRIDOR SYS-1 FLR-2 SCH-G HPLCMT-EAST ZN SPACE FUNCTION CORRIDOR/TRANSITION AREA OTHER-SCH-G PEOPLE\".\n   ** Warning ** GetInternalHeatGains: People Combination of ZoneList and Object Name generate a name too long.\n   **   ~~~   ** Object Name=\"SPACE FUNCTION CORRIDOR/TRANSITION AREA OTHER-SCH-G PEOPLE\".\n   **   ~~~   ** ZoneList/Zone Name=\"SP-T CORRIDOR SYS-1 FLR-3 SCH-G HPLCMT-WEST ZN\".\n   **   ~~~   ** Item length=[104] > Maximum Length=[100]. You may need to shorten the names.\n   **   ~~~   ** Shortening the Object Name by [5] characters will assure uniqueness for this ZoneList.\n   **   ~~~   ** name that will be used (may be needed in reporting)=\"SP-T CORRIDOR SYS-1 FLR-3 SCH-G HPLCMT-WEST ZN SPACE FUNCTION CORRIDOR/TRANSITION AREA OTHER-SCH-G PEOPLE\".\n   ** Warning ** GetInternalHeatGains: Lights Combination of ZoneList and Object Name generate a name too long.\n   **   ~~~   ** Object Name=\"SPACE FUNCTION CONFERENCE/MEETING/MULTI-PURPOSE ROOM LIGHTS\".\n   **   ~~~   ** ZoneList/Zone Name=\"SP-OFFICE SYS-3 FLR-1 SCH-C HPLCMT-SOUTH ZN\".\n   **   ~~~   ** Item length=[102] > Maximum Length=[100]. You may need to shorten the names.\n   **   ~~~   ** Shortening the Object Name by [3] characters will assure uniqueness for this ZoneList.\n   **   ~~~   ** name that will be used (may be needed in reporting)=\"SP-OFFICE SYS-3 FLR-1 SCH-C HPLCMT-SOUTH ZN SPACE FUNCTION CONFERENCE/MEETING/MULTI-PURPOSE ROOM LIGHTS\".\n   ** Warning ** GetInternalHeatGains: Lights Combination of ZoneList and Object Name generate a name too long.\n   **   ~~~   ** Object Name=\"SPACE FUNCTION CORRIDOR/TRANSITION AREA OTHER-SCH-G LIGHTS\".\n   **   ~~~   ** ZoneList/Zone Name=\"SP-G CORRIDOR SYS-1 FLR-1 SCH-G HPLCMT-EAST ZN\".\n   **   ~~~   ** Item length=[104] > Maximum Length=[100]. You may need to shorten the names.\n   **   ~~~   ** Shortening the Object Name by [5] characters will assure uniqueness for this ZoneList.\n   **   ~~~   ** name that will be used (may be needed in reporting)=\"SP-G CORRIDOR SYS-1 FLR-1 SCH-G HPLCMT-EAST ZN SPACE FUNCTION CORRIDOR/TRANSITION AREA OTHER-SCH-G LIGHTS\".\n   ** Warning ** GetInternalHeatGains: Lights Combination of ZoneList and Object Name generate a name too long.\n   **   ~~~   ** Object Name=\"SPACE FUNCTION CORRIDOR/TRANSITION AREA OTHER-SCH-G LIGHTS\".\n   **   ~~~   ** ZoneList/Zone Name=\"SP-M CORRIDOR SYS-1 FLR-2 SCH-G HPLCMT-EAST ZN\".\n   **   ~~~   ** Item length=[104] > Maximum Length=[100]. You may need to shorten the names.\n   **   ~~~   ** Shortening the Object Name by [5] characters will assure uniqueness for this ZoneList.\n   **   ~~~   ** name that will be used (may be needed in reporting)=\"SP-M CORRIDOR SYS-1 FLR-2 SCH-G HPLCMT-EAST ZN SPACE FUNCTION CORRIDOR/TRANSITION AREA OTHER-SCH-G LIGHTS\".\n   ** Warning ** GetInternalHeatGains: Lights Combination of ZoneList and Object Name generate a name too long.\n   **   ~~~   ** Object Name=\"SPACE FUNCTION CORRIDOR/TRANSITION AREA OTHER-SCH-G LIGHTS\".\n   **   ~~~   ** ZoneList/Zone Name=\"SP-T CORRIDOR SYS-1 FLR-3 SCH-G HPLCMT-WEST ZN\".\n   **   ~~~   ** Item length=[104] > Maximum Length=[100]. You may need to shorten the names.\n   **   ~~~   ** Shortening the Object Name by [5] characters will assure uniqueness for this ZoneList.\n   **   ~~~   ** name that will be used (may be needed in reporting)=\"SP-T CORRIDOR SYS-1 FLR-3 SCH-G HPLCMT-WEST ZN SPACE FUNCTION CORRIDOR/TRANSITION AREA OTHER-SCH-G LIGHTS\".\n   ** Warning ** GetInternalHeatGains: ElectricEquipment Combination of ZoneList and Object Name generate a name too long.\n   **   ~~~   ** Object Name=\"SPACE FUNCTION CONFERENCE/MEETING/MULTI-PURPOSE ROOM ELEC EQUIP\".\n   **   ~~~   ** ZoneList/Zone Name=\"SP-OFFICE SYS-3 FLR-1 SCH-C HPLCMT-SOUTH ZN\".\n   **   ~~~   ** Item length=[106] > Maximum Length=[100]. You may need to shorten the names.\n   **   ~~~   ** Shortening the Object Name by [7] characters will assure uniqueness for this ZoneList.\n   **   ~~~   ** name that will be used (may be needed in reporting)=\"SP-OFFICE SYS-3 FLR-1 SCH-C HPLCMT-SOUTH ZN SPACE FUNCTION CONFERENCE/MEETING/MULTI-PURPOSE ROOM ELEC EQUIP\".\n   ************* Beginning System Sizing Calculations\n   ** Warning ** GetDXCoils: Coil:Cooling:DX:SingleSpeed=\"COIL COOLING DX SINGLE SPEED 6 8KBTU/HR 10.8EER\", invalid\n   **   ~~~   ** ...Part Load Fraction Correlation Curve Name = DXCOOL-NECB2011-REF-COOLPLFFPLR has out of range value.\n   **   ~~~   ** ...Curve maximum must be <= 1.0, curve max at PLR = 0.99 is 1.015\n   **   ~~~   ** ...Setting curve maximum to 1.0 and simulation continues.\n   ************* Beginning Plant Sizing Calculations\n   ** Warning ** The Standard Ratings is calculated for Coil:Cooling:DX:SingleSpeed = COIL COOLING DX SINGLE SPEED 6 8KBTU/HR 10.8EER but not at the AHRI test condition due to curve out of bound.\n   **   ~~~   **  Review the Standard Ratings calculations in the Engineering Reference for this coil type. Also, use Output:Diagnostics, DisplayExtraWarnings for further guidance.\n   ** Warning ** The Standard Ratings is calculated for Coil:Cooling:DX:SingleSpeed = COIL COOLING DX SINGLE SPEED 2 7KBTU/HR 11.0EER but not at the AHRI test condition due to curve out of bound.\n   **   ~~~   **  Review the Standard Ratings calculations in the Engineering Reference for this coil type. Also, use Output:Diagnostics, DisplayExtraWarnings for further guidance.\n   ** Warning ** The Standard Ratings is calculated for Coil:Cooling:DX:SingleSpeed = COIL COOLING DX SINGLE SPEED 3 7KBTU/HR 11.0EER but not at the AHRI test condition due to curve out of bound.\n   **   ~~~   **  Review the Standard Ratings calculations in the Engineering Reference for this coil type. Also, use Output:Diagnostics, DisplayExtraWarnings for further guidance.\n   ** Warning ** The Standard Ratings is calculated for Coil:Cooling:DX:SingleSpeed = COIL COOLING DX SINGLE SPEED 4 17KBTU/HR 9.3EER but not at the AHRI test condition due to curve out of bound.\n   **   ~~~   **  Review the Standard Ratings calculations in the Engineering Reference for this coil type. Also, use Output:Diagnostics, DisplayExtraWarnings for further guidance.\n   ** Warning ** The Standard Ratings is calculated for Coil:Cooling:DX:SingleSpeed = COIL COOLING DX SINGLE SPEED 5 17KBTU/HR 9.3EER but not at the AHRI test condition due to curve out of bound.\n   **   ~~~   **  Review the Standard Ratings calculations in the Engineering Reference for this coil type. Also, use Output:Diagnostics, DisplayExtraWarnings for further guidance.\n   ** Warning ** The Standard Ratings is calculated for Coil:Cooling:DX:SingleSpeed = COIL COOLING DX SINGLE SPEED 7 14KBTU/HR 9.5EER but not at the AHRI test condition due to curve out of bound.\n   **   ~~~   **  Review the Standard Ratings calculations in the Engineering Reference for this coil type. Also, use Output:Diagnostics, DisplayExtraWarnings for further guidance.\n   ** Warning ** The Standard Ratings is calculated for Coil:Cooling:DX:SingleSpeed = COIL COOLING DX SINGLE SPEED 8 14KBTU/HR 9.4EER but not at the AHRI test condition due to curve out of bound.\n   **   ~~~   **  Review the Standard Ratings calculations in the Engineering Reference for this coil type. Also, use Output:Diagnostics, DisplayExtraWarnings for further guidance.\n   ** Warning ** The Standard Ratings is calculated for Coil:Cooling:DX:SingleSpeed = COIL COOLING DX SINGLE SPEED 9 19KBTU/HR 9.3EER but not at the AHRI test condition due to curve out of bound.\n   **   ~~~   **  Review the Standard Ratings calculations in the Engineering Reference for this coil type. Also, use Output:Diagnostics, DisplayExtraWarnings for further guidance.\n   ** Warning ** The Standard Ratings is calculated for Coil:Cooling:DX:SingleSpeed = COIL COOLING DX SINGLE SPEED 14 9KBTU/HR 10.6EER but not at the AHRI test condition due to curve out of bound.\n   **   ~~~   **  Review the Standard Ratings calculations in the Engineering Reference for this coil type. Also, use Output:Diagnostics, DisplayExtraWarnings for further guidance.\n   ** Warning ** The Standard Ratings is calculated for Coil:Cooling:DX:SingleSpeed = COIL COOLING DX SINGLE SPEED 10 8KBTU/HR 10.8EER but not at the AHRI test condition due to curve out of bound.\n   **   ~~~   **  Review the Standard Ratings calculations in the Engineering Reference for this coil type. Also, use Output:Diagnostics, DisplayExtraWarnings for further guidance.\n   ** Warning ** The Standard Ratings is calculated for Coil:Cooling:DX:SingleSpeed = COIL COOLING DX SINGLE SPEED 11 7KBTU/HR 10.9EER but not at the AHRI test condition due to curve out of bound.\n   **   ~~~   **  Review the Standard Ratings calculations in the Engineering Reference for this coil type. Also, use Output:Diagnostics, DisplayExtraWarnings for further guidance.\n   ** Warning ** The Standard Ratings is calculated for Coil:Cooling:DX:SingleSpeed = COIL COOLING DX SINGLE SPEED 12 18KBTU/HR 9.3EER but not at the AHRI test condition due to curve out of bound.\n   **   ~~~   **  Review the Standard Ratings calculations in the Engineering Reference for this coil type. Also, use Output:Diagnostics, DisplayExtraWarnings for further guidance.\n   ** Warning ** The Standard Ratings is calculated for Coil:Cooling:DX:SingleSpeed = COIL COOLING DX SINGLE SPEED 13 19KBTU/HR 9.3EER but not at the AHRI test condition due to curve out of bound.\n   **   ~~~   **  Review the Standard Ratings calculations in the Engineering Reference for this coil type. Also, use Output:Diagnostics, DisplayExtraWarnings for further guidance.\n   ** Warning ** The Standard Ratings is calculated for Coil:Cooling:DX:SingleSpeed = COIL COOLING DX SINGLE SPEED 15 16KBTU/HR 9.3EER but not at the AHRI test condition due to curve out of bound.\n   **   ~~~   **  Review the Standard Ratings calculations in the Engineering Reference for this coil type. Also, use Output:Diagnostics, DisplayExtraWarnings for further guidance.\n   ** Warning ** The Standard Ratings is calculated for Coil:Cooling:DX:SingleSpeed = COIL COOLING DX SINGLE SPEED 16 16KBTU/HR 9.3EER but not at the AHRI test condition due to curve out of bound.\n   **   ~~~   **  Review the Standard Ratings calculations in the Engineering Reference for this coil type. Also, use Output:Diagnostics, DisplayExtraWarnings for further guidance.\n   ** Warning ** The Standard Ratings is calculated for Coil:Cooling:DX:SingleSpeed = COIL COOLING DX SINGLE SPEED 17 19KBTU/HR 9.3EER but not at the AHRI test condition due to curve out of bound.\n   **   ~~~   **  Review the Standard Ratings calculations in the Engineering Reference for this coil type. Also, use Output:Diagnostics, DisplayExtraWarnings for further guidance.\n   ** Warning ** The Standard Ratings is calculated for Coil:Cooling:DX:SingleSpeed = COIL COOLING DX SINGLE SPEED 18 21KBTU/HR 9.3EER but not at the AHRI test condition due to curve out of bound.\n   **   ~~~   **  Review the Standard Ratings calculations in the Engineering Reference for this coil type. Also, use Output:Diagnostics, DisplayExtraWarnings for further guidance.\n   ** Warning ** The Standard Ratings is calculated for Coil:Cooling:DX:SingleSpeed = COIL COOLING DX SINGLE SPEED 23 15KBTU/HR 9.3EER but not at the AHRI test condition due to curve out of bound.\n   **   ~~~   **  Review the Standard Ratings calculations in the Engineering Reference for this coil type. Also, use Output:Diagnostics, DisplayExtraWarnings for further guidance.\n   ** Warning ** The Standard Ratings is calculated for Coil:Cooling:DX:SingleSpeed = COIL COOLING DX SINGLE SPEED 19 12KBTU/HR 10.0EER but not at the AHRI test condition due to curve out of bound.\n   **   ~~~   **  Review the Standard Ratings calculations in the Engineering Reference for this coil type. Also, use Output:Diagnostics, DisplayExtraWarnings for further guidance.\n   ** Warning ** The Standard Ratings is calculated for Coil:Cooling:DX:SingleSpeed = COIL COOLING DX SINGLE SPEED 20 12KBTU/HR 9.9EER but not at the AHRI test condition due to curve out of bound.\n   **   ~~~   **  Review the Standard Ratings calculations in the Engineering Reference for this coil type. Also, use Output:Diagnostics, DisplayExtraWarnings for further guidance.\n   ** Warning ** The Standard Ratings is calculated for Coil:Cooling:DX:SingleSpeed = COIL COOLING DX SINGLE SPEED 21 22KBTU/HR 9.3EER but not at the AHRI test condition due to curve out of bound.\n   **   ~~~   **  Review the Standard Ratings calculations in the Engineering Reference for this coil type. Also, use Output:Diagnostics, DisplayExtraWarnings for further guidance.\n   ** Warning ** The Standard Ratings is calculated for Coil:Cooling:DX:SingleSpeed = COIL COOLING DX SINGLE SPEED 22 23KBTU/HR 9.3EER but not at the AHRI test condition due to curve out of bound.\n   **   ~~~   **  Review the Standard Ratings calculations in the Engineering Reference for this coil type. Also, use Output:Diagnostics, DisplayExtraWarnings for further guidance.\n   ** Warning ** The Standard Ratings is calculated for Coil:Cooling:DX:SingleSpeed = COIL COOLING DX SINGLE SPEED 24 23KBTU/HR 9.3EER but not at the AHRI test condition due to curve out of bound.\n   **   ~~~   **  Review the Standard Ratings calculations in the Engineering Reference for this coil type. Also, use Output:Diagnostics, DisplayExtraWarnings for further guidance.\n   ** Warning ** The Standard Ratings is calculated for Coil:Cooling:DX:SingleSpeed = COIL COOLING DX SINGLE SPEED 25 23KBTU/HR 9.3EER but not at the AHRI test condition due to curve out of bound.\n   **   ~~~   **  Review the Standard Ratings calculations in the Engineering Reference for this coil type. Also, use Output:Diagnostics, DisplayExtraWarnings for further guidance.\n   ** Warning ** The Standard Ratings is calculated for Coil:Cooling:DX:SingleSpeed = COIL COOLING DX SINGLE SPEED 26 26KBTU/HR 9.3EER but not at the AHRI test condition due to curve out of bound.\n   **   ~~~   **  Review the Standard Ratings calculations in the Engineering Reference for this coil type. Also, use Output:Diagnostics, DisplayExtraWarnings for further guidance.\n   ** Warning ** The Standard Ratings is calculated for Coil:Cooling:DX:SingleSpeed = COIL COOLING DX SINGLE SPEED 27 26KBTU/HR 9.3EER but not at the AHRI test condition due to curve out of bound.\n   **   ~~~   **  Review the Standard Ratings calculations in the Engineering Reference for this coil type. Also, use Output:Diagnostics, DisplayExtraWarnings for further guidance.\n   ** Warning ** GetVarSpeedCoilInput: COIL:HEATING:DX:VARIABLESPEED=\"SYS_1_MAKE-UP AIR UNIT CCASHP DX HTG COIL\", \n   **   ~~~   ** ...Minimum Outdoor Dry-Bulb Temperature for Compressor Operation = 0.0 for defrost control = TIMED.\n   ** Warning ** GetVarSpeedCoilInput: COIL:HEATING:DX:VARIABLESPEED=\"SYS_3_PSZ SP-OFFICE SYS-3 FLR-1 SCH-C HPLCMT-SOUTH ZN CCASHP DX HTG COIL\", \n   **   ~~~   ** ...Minimum Outdoor Dry-Bulb Temperature for Compressor Operation = 0.0 for defrost control = TIMED.\n   ** Warning ** SizePlantLoop: Calculated Plant Sizing Design Volume Flow Rate=[0.00] is too small. Set to 0.0\n   **   ~~~   ** ..occurs for PlantLoop=HOT WATER LOOP\n   ** Warning ** SizePump: Calculated Pump Nominal Volume Flow Rate=[0.00] is too small. Set to 0.0\n   **   ~~~   ** ..occurs for Pump=PUMP VARIABLE SPEED 1\n   ** Warning ** Check input. Pump nominal power or motor efficiency is set to 0, for pump=PUMP VARIABLE SPEED 1\n   ** Warning ** Check input. Pump nominal flow rate is set or calculated = 0, for pump=PUMP VARIABLE SPEED 1\n   ** Warning ** Output:Meter: invalid Key Name=\"DISTRICTCOOLING:FACILITY\" - not found.\n   ** Warning ** Output:Meter: invalid Key Name=\"DISTRICTHEATING:FACILITY\" - not found.\n   ** Warning ** Output:Meter:MeterFileOnly requested for \"Electricity:Facility\" (TimeStep), already on \"Output:Meter\". Will report to both eplusout.eso and eplusout.mtr\n   ************* Testing Individual Branch Integrity\n   ************* All Branches passed integrity testing\n   ************* Testing Individual Supply Air Path Integrity\n   ************* All Supply Air Paths passed integrity testing\n   ************* Testing Individual Return Air Path Integrity\n   ************* All Return Air Paths passed integrity testing\n   ** Warning ** Potential Node Connection Error for object ZONEHVAC:BASEBOARD:CONVECTIVE:WATER, name=ZONE HVAC BASEBOARD CONVECTIVE WATER 1\n   **   ~~~   **   Node Types are still UNDEFINED -- See Branch/Node Details file for further information\n   **   ~~~   **   Inlet Node : NODE 54\n   **   ~~~   **   Outlet Node: NODE 55\n   ** Warning ** Potential Node Connection Error for object ZONEHVAC:BASEBOARD:CONVECTIVE:WATER, name=ZONE HVAC BASEBOARD CONVECTIVE WATER 2\n   **   ~~~   **   Node Types are still UNDEFINED -- See Branch/Node Details file for further information\n   **   ~~~   **   Inlet Node : NODE 59\n   **   ~~~   **   Outlet Node: NODE 60\n   ** Warning ** Potential Node Connection Error for object ZONEHVAC:BASEBOARD:CONVECTIVE:WATER, name=ZONE HVAC BASEBOARD CONVECTIVE WATER 3\n   **   ~~~   **   Node Types are still UNDEFINED -- See Branch/Node Details file for further information\n   **   ~~~   **   Inlet Node : NODE 65\n   **   ~~~   **   Outlet Node: NODE 66\n   ** Warning ** Potential Node Connection Error for object ZONEHVAC:BASEBOARD:CONVECTIVE:WATER, name=ZONE HVAC BASEBOARD CONVECTIVE WATER 4\n   **   ~~~   **   Node Types are still UNDEFINED -- See Branch/Node Details file for further information\n   **   ~~~   **   Inlet Node : NODE 71\n   **   ~~~   **   Outlet Node: NODE 72\n   ** Warning ** Potential Node Connection Error for object ZONEHVAC:BASEBOARD:CONVECTIVE:WATER, name=ZONE HVAC BASEBOARD CONVECTIVE WATER 5\n   **   ~~~   **   Node Types are still UNDEFINED -- See Branch/Node Details file for further information\n   **   ~~~   **   Inlet Node : NODE 77\n   **   ~~~   **   Outlet Node: NODE 78\n   ** Warning ** Potential Node Connection Error for object ZONEHVAC:BASEBOARD:CONVECTIVE:WATER, name=ZONE HVAC BASEBOARD CONVECTIVE WATER 6\n   **   ~~~   **   Node Types are still UNDEFINED -- See Branch/Node Details file for further information\n   **   ~~~   **   Inlet Node : NODE 83\n   **   ~~~   **   Outlet Node: NODE 84\n   ** Warning ** Potential Node Connection Error for object ZONEHVAC:BASEBOARD:CONVECTIVE:WATER, name=ZONE HVAC BASEBOARD CONVECTIVE WATER 7\n   **   ~~~   **   Node Types are still UNDEFINED -- See Branch/Node Details file for further information\n   **   ~~~   **   Inlet Node : NODE 89\n   **   ~~~   **   Outlet Node: NODE 90\n   ** Warning ** Potential Node Connection Error for object ZONEHVAC:BASEBOARD:CONVECTIVE:WATER, name=ZONE HVAC BASEBOARD CONVECTIVE WATER 8\n   **   ~~~   **   Node Types are still UNDEFINED -- See Branch/Node Details file for further information\n   **   ~~~   **   Inlet Node : NODE 95\n   **   ~~~   **   Outlet Node: NODE 96\n   ** Warning ** Potential Node Connection Error for object ZONEHVAC:BASEBOARD:CONVECTIVE:WATER, name=ZONE HVAC BASEBOARD CONVECTIVE WATER 9\n   **   ~~~   **   Node Types are still UNDEFINED -- See Branch/Node Details file for further information\n   **   ~~~   **   Inlet Node : NODE 101\n   **   ~~~   **   Outlet Node: NODE 102\n   ** Warning ** Potential Node Connection Error for object ZONEHVAC:BASEBOARD:CONVECTIVE:WATER, name=ZONE HVAC BASEBOARD CONVECTIVE WATER 10\n   **   ~~~   **   Node Types are still UNDEFINED -- See Branch/Node Details file for further information\n   **   ~~~   **   Inlet Node : NODE 107\n   **   ~~~   **   Outlet Node: NODE 108\n   ** Warning ** Potential Node Connection Error for object ZONEHVAC:BASEBOARD:CONVECTIVE:WATER, name=ZONE HVAC BASEBOARD CONVECTIVE WATER 11\n   **   ~~~   **   Node Types are still UNDEFINED -- See Branch/Node Details file for further information\n   **   ~~~   **   Inlet Node : NODE 113\n   **   ~~~   **   Outlet Node: NODE 114\n   ** Warning ** Potential Node Connection Error for object ZONEHVAC:BASEBOARD:CONVECTIVE:WATER, name=ZONE HVAC BASEBOARD CONVECTIVE WATER 12\n   **   ~~~   **   Node Types are still UNDEFINED -- See Branch/Node Details file for further information\n   **   ~~~   **   Inlet Node : NODE 119\n   **   ~~~   **   Outlet Node: NODE 120\n   ** Warning ** Potential Node Connection Error for object ZONEHVAC:BASEBOARD:CONVECTIVE:WATER, name=ZONE HVAC BASEBOARD CONVECTIVE WATER 13\n   **   ~~~   **   Node Types are still UNDEFINED -- See Branch/Node Details file for further information\n   **   ~~~   **   Inlet Node : NODE 125\n   **   ~~~   **   Outlet Node: NODE 126\n   ** Warning ** Potential Node Connection Error for object ZONEHVAC:BASEBOARD:CONVECTIVE:WATER, name=ZONE HVAC BASEBOARD CONVECTIVE WATER 14\n   **   ~~~   **   Node Types are still UNDEFINED -- See Branch/Node Details file for further information\n   **   ~~~   **   Inlet Node : NODE 131\n   **   ~~~   **   Outlet Node: NODE 132\n   ** Warning ** Potential Node Connection Error for object ZONEHVAC:BASEBOARD:CONVECTIVE:WATER, name=ZONE HVAC BASEBOARD CONVECTIVE WATER 15\n   **   ~~~   **   Node Types are still UNDEFINED -- See Branch/Node Details file for further information\n   **   ~~~   **   Inlet Node : NODE 137\n   **   ~~~   **   Outlet Node: NODE 138\n   ** Warning ** Potential Node Connection Error for object ZONEHVAC:BASEBOARD:CONVECTIVE:WATER, name=ZONE HVAC BASEBOARD CONVECTIVE WATER 16\n   **   ~~~   **   Node Types are still UNDEFINED -- See Branch/Node Details file for further information\n   **   ~~~   **   Inlet Node : NODE 143\n   **   ~~~   **   Outlet Node: NODE 144\n   ** Warning ** Potential Node Connection Error for object ZONEHVAC:BASEBOARD:CONVECTIVE:WATER, name=ZONE HVAC BASEBOARD CONVECTIVE WATER 17\n   **   ~~~   **   Node Types are still UNDEFINED -- See Branch/Node Details file for further information\n   **   ~~~   **   Inlet Node : NODE 149\n   **   ~~~   **   Outlet Node: NODE 150\n   ** Warning ** Potential Node Connection Error for object ZONEHVAC:BASEBOARD:CONVECTIVE:WATER, name=ZONE HVAC BASEBOARD CONVECTIVE WATER 18\n   **   ~~~   **   Node Types are still UNDEFINED -- See Branch/Node Details file for further information\n   **   ~~~   **   Inlet Node : NODE 155\n   **   ~~~   **   Outlet Node: NODE 156\n   ** Warning ** Potential Node Connection Error for object ZONEHVAC:BASEBOARD:CONVECTIVE:WATER, name=ZONE HVAC BASEBOARD CONVECTIVE WATER 19\n   **   ~~~   **   Node Types are still UNDEFINED -- See Branch/Node Details file for further information\n   **   ~~~   **   Inlet Node : NODE 161\n   **   ~~~   **   Outlet Node: NODE 162\n   ** Warning ** Potential Node Connection Error for object ZONEHVAC:BASEBOARD:CONVECTIVE:WATER, name=ZONE HVAC BASEBOARD CONVECTIVE WATER 20\n   **   ~~~   **   Node Types are still UNDEFINED -- See Branch/Node Details file for further information\n   **   ~~~   **   Inlet Node : NODE 167\n   **   ~~~   **   Outlet Node: NODE 168\n   ** Warning ** Potential Node Connection Error for object ZONEHVAC:BASEBOARD:CONVECTIVE:WATER, name=ZONE HVAC BASEBOARD CONVECTIVE WATER 21\n   **   ~~~   **   Node Types are still UNDEFINED -- See Branch/Node Details file for further information\n   **   ~~~   **   Inlet Node : NODE 173\n   **   ~~~   **   Outlet Node: NODE 174\n   ** Warning ** Potential Node Connection Error for object ZONEHVAC:BASEBOARD:CONVECTIVE:WATER, name=ZONE HVAC BASEBOARD CONVECTIVE WATER 22\n   **   ~~~   **   Node Types are still UNDEFINED -- See Branch/Node Details file for further information\n   **   ~~~   **   Inlet Node : NODE 179\n   **   ~~~   **   Outlet Node: NODE 180\n   ** Warning ** Potential Node Connection Error for object ZONEHVAC:BASEBOARD:CONVECTIVE:WATER, name=ZONE HVAC BASEBOARD CONVECTIVE WATER 23\n   **   ~~~   **   Node Types are still UNDEFINED -- See Branch/Node Details file for further information\n   **   ~~~   **   Inlet Node : NODE 185\n   **   ~~~   **   Outlet Node: NODE 186\n   ** Warning ** Potential Node Connection Error for object ZONEHVAC:BASEBOARD:CONVECTIVE:WATER, name=ZONE HVAC BASEBOARD CONVECTIVE WATER 24\n   **   ~~~   **   Node Types are still UNDEFINED -- See Branch/Node Details file for further information\n   **   ~~~   **   Inlet Node : NODE 191\n   **   ~~~   **   Outlet Node: NODE 192\n   ** Warning ** Potential Node Connection Error for object ZONEHVAC:BASEBOARD:CONVECTIVE:WATER, name=ZONE HVAC BASEBOARD CONVECTIVE WATER 25\n   **   ~~~   **   Node Types are still UNDEFINED -- See Branch/Node Details file for further information\n   **   ~~~   **   Inlet Node : NODE 197\n   **   ~~~   **   Outlet Node: NODE 198\n   ** Warning ** Potential Node Connection Error for object ZONEHVAC:BASEBOARD:CONVECTIVE:WATER, name=ZONE HVAC BASEBOARD CONVECTIVE WATER 26\n   **   ~~~   **   Node Types are still UNDEFINED -- See Branch/Node Details file for further information\n   **   ~~~   **   Inlet Node : NODE 203\n   **   ~~~   **   Outlet Node: NODE 204\n   ** Warning ** Potential Node Connection Error for object ZONEHVAC:BASEBOARD:CONVECTIVE:WATER, name=ZONE HVAC BASEBOARD CONVECTIVE WATER 27\n   **   ~~~   **   Node Types are still UNDEFINED -- See Branch/Node Details file for further information\n   **   ~~~   **   Inlet Node : NODE 218\n   **   ~~~   **   Outlet Node: NODE 219\n   ************* There were 27 node connection errors noted.\n   ************* Beginning Simulation\n   ** Warning ** Processing Monthly Tabular Reports: Variable names not valid for this simulation\n   **   ~~~   ** ...use Output:Diagnostics,DisplayExtraWarnings; to show more details on individual variables.\n   ** Warning ** GetInputEconomicsTariff: UtilityCost:Tariff=\"NONEOIL\" missing meter\n   **   ~~~   ** Meter referenced is not present due to a lack of equipment that uses that energy source/meter:\"FUELOIL#2:FACILITY\".\n   ** Warning ** CalcDoe2DXCoil: Coil:Cooling:DX:SingleSpeed \"COIL COOLING DX SINGLE SPEED 7 14KBTU/HR 9.5EER\" - Air-cooled condenser inlet dry-bulb temperature below 0 C. Outdoor dry-bulb temperature = -0.20\n   **   ~~~   **  ... Occurrence info = RUN PERIOD 1, 01/01 15:00 - 15:15\n   **   ~~~   ** ... Operation at low ambient temperatures may require special performance curves.\n   ** Warning ** CalcDoe2DXCoil: Coil:Cooling:DX:SingleSpeed \"COIL COOLING DX SINGLE SPEED 8 14KBTU/HR 9.4EER\" - Air-cooled condenser inlet dry-bulb temperature below 0 C. Outdoor dry-bulb temperature = -0.20\n   **   ~~~   **  ... Occurrence info = RUN PERIOD 1, 01/01 15:00 - 15:15\n   **   ~~~   ** ... Operation at low ambient temperatures may require special performance curves.\n   ** Warning ** CalcDoe2DXCoil: Coil:Cooling:DX:SingleSpeed \"COIL COOLING DX SINGLE SPEED 9 19KBTU/HR 9.3EER\" - Air-cooled condenser inlet dry-bulb temperature below 0 C. Outdoor dry-bulb temperature = -0.20\n   **   ~~~   **  ... Occurrence info = RUN PERIOD 1, 01/01 15:00 - 15:15\n   **   ~~~   ** ... Operation at low ambient temperatures may require special performance curves.\n   ** Warning ** CalcDoe2DXCoil: Coil:Cooling:DX:SingleSpeed \"COIL COOLING DX SINGLE SPEED 15 16KBTU/HR 9.3EER\" - Air-cooled condenser inlet dry-bulb temperature below 0 C. Outdoor dry-bulb temperature = -0.20\n   **   ~~~   **  ... Occurrence info = RUN PERIOD 1, 01/01 15:00 - 15:15\n   **   ~~~   ** ... Operation at low ambient temperatures may require special performance curves.\n   ** Warning ** CalcDoe2DXCoil: Coil:Cooling:DX:SingleSpeed \"COIL COOLING DX SINGLE SPEED 16 16KBTU/HR 9.3EER\" - Air-cooled condenser inlet dry-bulb temperature below 0 C. Outdoor dry-bulb temperature = -0.20\n   **   ~~~   **  ... Occurrence info = RUN PERIOD 1, 01/01 15:00 - 15:15\n   **   ~~~   ** ... Operation at low ambient temperatures may require special performance curves.\n   ** Warning ** CalcDoe2DXCoil: Coil:Cooling:DX:SingleSpeed \"COIL COOLING DX SINGLE SPEED 17 19KBTU/HR 9.3EER\" - Air-cooled condenser inlet dry-bulb temperature below 0 C. Outdoor dry-bulb temperature = -0.20\n   **   ~~~   **  ... Occurrence info = RUN PERIOD 1, 01/01 15:00 - 15:15\n   **   ~~~   ** ... Operation at low ambient temperatures may require special performance curves.\n   ** Warning ** CalcDoe2DXCoil: Coil:Cooling:DX:SingleSpeed \"COIL COOLING DX SINGLE SPEED 18 21KBTU/HR 9.3EER\" - Air-cooled condenser inlet dry-bulb temperature below 0 C. Outdoor dry-bulb temperature = -0.20\n   **   ~~~   **  ... Occurrence info = RUN PERIOD 1, 01/01 15:00 - 15:15\n   **   ~~~   ** ... Operation at low ambient temperatures may require special performance curves.\n   ** Warning ** CalcDoe2DXCoil: Coil:Cooling:DX:SingleSpeed \"COIL COOLING DX SINGLE SPEED 24 23KBTU/HR 9.3EER\" - Air-cooled condenser inlet dry-bulb temperature below 0 C. Outdoor dry-bulb temperature = -0.20\n   **   ~~~   **  ... Occurrence info = RUN PERIOD 1, 01/01 15:00 - 15:15\n   **   ~~~   ** ... Operation at low ambient temperatures may require special performance curves.\n   ** Warning ** CalcDoe2DXCoil: Coil:Cooling:DX:SingleSpeed \"COIL COOLING DX SINGLE SPEED 25 23KBTU/HR 9.3EER\" - Air-cooled condenser inlet dry-bulb temperature below 0 C. Outdoor dry-bulb temperature = -0.20\n   **   ~~~   **  ... Occurrence info = RUN PERIOD 1, 01/01 15:00 - 15:15\n   **   ~~~   ** ... Operation at low ambient temperatures may require special performance curves.\n   ** Warning ** CalcDoe2DXCoil: Coil:Cooling:DX:SingleSpeed \"COIL COOLING DX SINGLE SPEED 26 26KBTU/HR 9.3EER\" - Air-cooled condenser inlet dry-bulb temperature below 0 C. Outdoor dry-bulb temperature = -0.20\n   **   ~~~   **  ... Occurrence info = RUN PERIOD 1, 01/01 15:00 - 15:15\n   **   ~~~   ** ... Operation at low ambient temperatures may require special performance curves.\n   ** Warning ** CalcDoe2DXCoil: Coil:Cooling:DX:SingleSpeed \"COIL COOLING DX SINGLE SPEED 27 26KBTU/HR 9.3EER\" - Air-cooled condenser inlet dry-bulb temperature below 0 C. Outdoor dry-bulb temperature = -0.20\n   **   ~~~   **  ... Occurrence info = RUN PERIOD 1, 01/01 15:00 - 15:15\n   **   ~~~   ** ... Operation at low ambient temperatures may require special performance curves.\n   ** Warning ** CalcDoe2DXCoil: Coil:Cooling:DX:SingleSpeed \"COIL COOLING DX SINGLE SPEED 14 9KBTU/HR 10.6EER\" - Air-cooled condenser inlet dry-bulb temperature below 0 C. Outdoor dry-bulb temperature = -7.50E-002\n   **   ~~~   **  ... Occurrence info = RUN PERIOD 1, 01/08 13:30 - 13:45\n   **   ~~~   ** ... Operation at low ambient temperatures may require special performance curves.\n   ** Warning ** CalcDoe2DXCoil: Coil:Cooling:DX:SingleSpeed \"COIL COOLING DX SINGLE SPEED 6 8KBTU/HR 10.8EER\" - Air-cooled condenser inlet dry-bulb temperature below 0 C. Outdoor dry-bulb temperature = -4.68\n   **   ~~~   **  ... Occurrence info = RUN PERIOD 1, 01/09 13:30 - 13:45\n   **   ~~~   ** ... Operation at low ambient temperatures may require special performance curves.\n   ** Warning ** CalcDoe2DXCoil: Coil:Cooling:DX:SingleSpeed \"COIL COOLING DX SINGLE SPEED 23 15KBTU/HR 9.3EER\" - Air-cooled condenser inlet dry-bulb temperature below 0 C. Outdoor dry-bulb temperature = -5.25\n   **   ~~~   **  ... Occurrence info = RUN PERIOD 1, 01/10 13:30 - 13:45\n   **   ~~~   ** ... Operation at low ambient temperatures may require special performance curves.\n   ** Warning ** CalcDoe2DXCoil: Coil:Cooling:DX:SingleSpeed \"COIL COOLING DX SINGLE SPEED 5 17KBTU/HR 9.3EER\" - Air-cooled condenser inlet dry-bulb temperature below 0 C. Outdoor dry-bulb temperature = -0.43\n   **   ~~~   **  ... Occurrence info = RUN PERIOD 1, 01/11 16:00 - 16:15\n   **   ~~~   ** ... Operation at low ambient temperatures may require special performance curves.\n   ** Warning ** CalcDoe2DXCoil: Coil:Cooling:DX:SingleSpeed \"COIL COOLING DX SINGLE SPEED 13 19KBTU/HR 9.3EER\" - Air-cooled condenser inlet dry-bulb temperature below 0 C. Outdoor dry-bulb temperature = -0.20\n   **   ~~~   **  ... Occurrence info = RUN PERIOD 1, 01/15 16:00 - 16:15\n   **   ~~~   ** ... Operation at low ambient temperatures may require special performance curves.\n   ** Warning ** CalcDoe2DXCoil: Coil:Cooling:DX:SingleSpeed \"COIL COOLING DX SINGLE SPEED 22 23KBTU/HR 9.3EER\" - Air-cooled condenser inlet dry-bulb temperature below 0 C. Outdoor dry-bulb temperature = -0.20\n   **   ~~~   **  ... Occurrence info = RUN PERIOD 1, 01/15 16:00 - 16:15\n   **   ~~~   ** ... Operation at low ambient temperatures may require special performance curves.\n   ** Warning ** CalcDoe2DXCoil: Coil:Cooling:DX:SingleSpeed \"COIL COOLING DX SINGLE SPEED 10 8KBTU/HR 10.8EER\" - Air-cooled condenser inlet dry-bulb temperature below 0 C. Outdoor dry-bulb temperature = -0.20\n   **   ~~~   **  ... Occurrence info = RUN PERIOD 1, 01/18 19:45 - 20:00\n   **   ~~~   ** ... Operation at low ambient temperatures may require special performance curves.\n   ** Warning ** CalcDoe2DXCoil: Coil:Cooling:DX:SingleSpeed \"COIL COOLING DX SINGLE SPEED 11 7KBTU/HR 10.9EER\" - Air-cooled condenser inlet dry-bulb temperature below 0 C. Outdoor dry-bulb temperature = -0.90\n   **   ~~~   **  ... Occurrence info = RUN PERIOD 1, 01/18 20:45 - 21:00\n   **   ~~~   ** ... Operation at low ambient temperatures may require special performance curves.\n   ** Warning ** CalcDoe2DXCoil: Coil:Cooling:DX:SingleSpeed \"COIL COOLING DX SINGLE SPEED 4 17KBTU/HR 9.3EER\" - Air-cooled condenser inlet dry-bulb temperature below 0 C. Outdoor dry-bulb temperature = -0.70\n   **   ~~~   **  ... Occurrence info = RUN PERIOD 1, 02/22 09:55 - 10:00\n   **   ~~~   ** ... Operation at low ambient temperatures may require special performance curves.\n   ** Warning ** CalcDoe2DXCoil: Coil:Cooling:DX:SingleSpeed \"COIL COOLING DX SINGLE SPEED 2 7KBTU/HR 11.0EER\" - Air-cooled condenser inlet dry-bulb temperature below 0 C. Outdoor dry-bulb temperature = -2.53\n   **   ~~~   **  ... Occurrence info = RUN PERIOD 1, 02/25 19:00 - 19:15\n   **   ~~~   ** ... Operation at low ambient temperatures may require special performance curves.\n   ** Warning ** CalcDoe2DXCoil: Coil:Cooling:DX:SingleSpeed \"COIL COOLING DX SINGLE SPEED 12 18KBTU/HR 9.3EER\" - Air-cooled condenser inlet dry-bulb temperature below 0 C. Outdoor dry-bulb temperature = -2.85\n   **   ~~~   **  ... Occurrence info = RUN PERIOD 1, 02/25 19:15 - 19:30\n   **   ~~~   ** ... Operation at low ambient temperatures may require special performance curves.\n   ** Warning ** CalcDoe2DXCoil: Coil:Cooling:DX:SingleSpeed \"COIL COOLING DX SINGLE SPEED 3 7KBTU/HR 11.0EER\" - Air-cooled condenser inlet dry-bulb temperature below 0 C. Outdoor dry-bulb temperature = -3.18\n   **   ~~~   **  ... Occurrence info = RUN PERIOD 1, 02/25 19:30 - 19:45\n   **   ~~~   ** ... Operation at low ambient temperatures may require special performance curves.\n   ** Warning ** CalcDoe2DXCoil: Coil:Cooling:DX:SingleSpeed \"COIL COOLING DX SINGLE SPEED 21 22KBTU/HR 9.3EER\" - Air-cooled condenser inlet dry-bulb temperature below 0 C. Outdoor dry-bulb temperature = -2.00\n   **   ~~~   **  ... Occurrence info = RUN PERIOD 1, 03/04 10:10 - 10:15\n   **   ~~~   ** ... Operation at low ambient temperatures may require special performance curves.\n   ** Warning ** CalcDoe2DXCoil: Coil:Cooling:DX:SingleSpeed \"COIL COOLING DX SINGLE SPEED 19 12KBTU/HR 10.0EER\" - Air-cooled condenser inlet dry-bulb temperature below 0 C. Outdoor dry-bulb temperature = -0.35\n   **   ~~~   **  ... Occurrence info = RUN PERIOD 1, 03/30 19:00 - 19:15\n   **   ~~~   ** ... Operation at low ambient temperatures may require special performance curves.\n   ** Warning ** CalcDoe2DXCoil: Coil:Cooling:DX:SingleSpeed \"COIL COOLING DX SINGLE SPEED 20 12KBTU/HR 9.9EER\" - Air-cooled condenser inlet dry-bulb temperature below 0 C. Outdoor dry-bulb temperature = -0.35\n   **   ~~~   **  ... Occurrence info = RUN PERIOD 1, 03/30 19:00 - 19:15\n   **   ~~~   ** ... Operation at low ambient temperatures may require special performance curves.\n   ** Warning ** The resource referenced by LifeCycleCost:UsePriceEscalation= \"U.S. AVG  COMMERCIAL-DISTILLATE OIL\" has no energy cost. \n   **   ~~~   ** ... It is likely that the wrong resource is used. The resource should match the meter used in Utility:Tariff.\n   ** Warning ** The resource referenced by LifeCycleCost:UsePriceEscalation= \"U.S. AVG  COMMERCIAL-RESIDUAL OIL\" has no energy cost. \n   **   ~~~   ** ... It is likely that the wrong resource is used. The resource should match the meter used in Utility:Tariff.\n   ** Warning ** The resource referenced by LifeCycleCost:UsePriceEscalation= \"U.S. AVG  COMMERCIAL-COAL\" has no energy cost. \n   **   ~~~   ** ... It is likely that the wrong resource is used. The resource should match the meter used in Utility:Tariff.\n   ************* Simulation Error Summary *************\n   ** Severe  ** Orphaned ZoneHVAC object found.  This was object never referenced in the input, and was not used.\n   **   ~~~   **  -- Object type: ZoneHVAC:Baseboard:Convective:Water\n   **   ~~~   **  -- Object name: Zone HVAC Baseboard Convective Water 1\n   ** Severe  ** Orphaned ZoneHVAC object found.  This was object never referenced in the input, and was not used.\n   **   ~~~   **  -- Object type: ZoneHVAC:Baseboard:Convective:Water\n   **   ~~~   **  -- Object name: Zone HVAC Baseboard Convective Water 2\n   ** Severe  ** Orphaned ZoneHVAC object found.  This was object never referenced in the input, and was not used.\n   **   ~~~   **  -- Object type: ZoneHVAC:Baseboard:Convective:Water\n   **   ~~~   **  -- Object name: Zone HVAC Baseboard Convective Water 3\n   ** Severe  ** Orphaned ZoneHVAC object found.  This was object never referenced in the input, and was not used.\n   **   ~~~   **  -- Object type: ZoneHVAC:Baseboard:Convective:Water\n   **   ~~~   **  -- Object name: Zone HVAC Baseboard Convective Water 4\n   ** Severe  ** Orphaned ZoneHVAC object found.  This was object never referenced in the input, and was not used.\n   **   ~~~   **  -- Object type: ZoneHVAC:Baseboard:Convective:Water\n   **   ~~~   **  -- Object name: Zone HVAC Baseboard Convective Water 5\n   ** Severe  ** Orphaned ZoneHVAC object found.  This was object never referenced in the input, and was not used.\n   **   ~~~   **  -- Object type: ZoneHVAC:Baseboard:Convective:Water\n   **   ~~~   **  -- Object name: Zone HVAC Baseboard Convective Water 6\n   ** Severe  ** Orphaned ZoneHVAC object found.  This was object never referenced in the input, and was not used.\n   **   ~~~   **  -- Object type: ZoneHVAC:Baseboard:Convective:Water\n   **   ~~~   **  -- Object name: Zone HVAC Baseboard Convective Water 7\n   ** Severe  ** Orphaned ZoneHVAC object found.  This was object never referenced in the input, and was not used.\n   **   ~~~   **  -- Object type: ZoneHVAC:Baseboard:Convective:Water\n   **   ~~~   **  -- Object name: Zone HVAC Baseboard Convective Water 8\n   ** Severe  ** Orphaned ZoneHVAC object found.  This was object never referenced in the input, and was not used.\n   **   ~~~   **  -- Object type: ZoneHVAC:Baseboard:Convective:Water\n   **   ~~~   **  -- Object name: Zone HVAC Baseboard Convective Water 9\n   ** Severe  ** Orphaned ZoneHVAC object found.  This was object never referenced in the input, and was not used.\n   **   ~~~   **  -- Object type: ZoneHVAC:Baseboard:Convective:Water\n   **   ~~~   **  -- Object name: Zone HVAC Baseboard Convective Water 10\n   ** Severe  ** Orphaned ZoneHVAC object found.  This was object never referenced in the input, and was not used.\n   **   ~~~   **  -- Object type: ZoneHVAC:Baseboard:Convective:Water\n   **   ~~~   **  -- Object name: Zone HVAC Baseboard Convective Water 11\n   ** Severe  ** Orphaned ZoneHVAC object found.  This was object never referenced in the input, and was not used.\n   **   ~~~   **  -- Object type: ZoneHVAC:Baseboard:Convective:Water\n   **   ~~~   **  -- Object name: Zone HVAC Baseboard Convective Water 12\n   ** Severe  ** Orphaned ZoneHVAC object found.  This was object never referenced in the input, and was not used.\n   **   ~~~   **  -- Object type: ZoneHVAC:Baseboard:Convective:Water\n   **   ~~~   **  -- Object name: Zone HVAC Baseboard Convective Water 13\n   ** Severe  ** Orphaned ZoneHVAC object found.  This was object never referenced in the input, and was not used.\n   **   ~~~   **  -- Object type: ZoneHVAC:Baseboard:Convective:Water\n   **   ~~~   **  -- Object name: Zone HVAC Baseboard Convective Water 14\n   ** Severe  ** Orphaned ZoneHVAC object found.  This was object never referenced in the input, and was not used.\n   **   ~~~   **  -- Object type: ZoneHVAC:Baseboard:Convective:Water\n   **   ~~~   **  -- Object name: Zone HVAC Baseboard Convective Water 15\n   ** Severe  ** Orphaned ZoneHVAC object found.  This was object never referenced in the input, and was not used.\n   **   ~~~   **  -- Object type: ZoneHVAC:Baseboard:Convective:Water\n   **   ~~~   **  -- Object name: Zone HVAC Baseboard Convective Water 16\n   ** Severe  ** Orphaned ZoneHVAC object found.  This was object never referenced in the input, and was not used.\n   **   ~~~   **  -- Object type: ZoneHVAC:Baseboard:Convective:Water\n   **   ~~~   **  -- Object name: Zone HVAC Baseboard Convective Water 17\n   ** Severe  ** Orphaned ZoneHVAC object found.  This was object never referenced in the input, and was not used.\n   **   ~~~   **  -- Object type: ZoneHVAC:Baseboard:Convective:Water\n   **   ~~~   **  -- Object name: Zone HVAC Baseboard Convective Water 18\n   ** Severe  ** Orphaned ZoneHVAC object found.  This was object never referenced in the input, and was not used.\n   **   ~~~   **  -- Object type: ZoneHVAC:Baseboard:Convective:Water\n   **   ~~~   **  -- Object name: Zone HVAC Baseboard Convective Water 19\n   ** Severe  ** Orphaned ZoneHVAC object found.  This was object never referenced in the input, and was not used.\n   **   ~~~   **  -- Object type: ZoneHVAC:Baseboard:Convective:Water\n   **   ~~~   **  -- Object name: Zone HVAC Baseboard Convective Water 20\n   ** Severe  ** Orphaned ZoneHVAC object found.  This was object never referenced in the input, and was not used.\n   **   ~~~   **  -- Object type: ZoneHVAC:Baseboard:Convective:Water\n   **   ~~~   **  -- Object name: Zone HVAC Baseboard Convective Water 21\n   ** Severe  ** Orphaned ZoneHVAC object found.  This was object never referenced in the input, and was not used.\n   **   ~~~   **  -- Object type: ZoneHVAC:Baseboard:Convective:Water\n   **   ~~~   **  -- Object name: Zone HVAC Baseboard Convective Water 22\n   ** Severe  ** Orphaned ZoneHVAC object found.  This was object never referenced in the input, and was not used.\n   **   ~~~   **  -- Object type: ZoneHVAC:Baseboard:Convective:Water\n   **   ~~~   **  -- Object name: Zone HVAC Baseboard Convective Water 23\n   ** Severe  ** Orphaned ZoneHVAC object found.  This was object never referenced in the input, and was not used.\n   **   ~~~   **  -- Object type: ZoneHVAC:Baseboard:Convective:Water\n   **   ~~~   **  -- Object name: Zone HVAC Baseboard Convective Water 24\n   ** Severe  ** Orphaned ZoneHVAC object found.  This was object never referenced in the input, and was not used.\n   **   ~~~   **  -- Object type: ZoneHVAC:Baseboard:Convective:Water\n   **   ~~~   **  -- Object name: Zone HVAC Baseboard Convective Water 25\n   ** Severe  ** Orphaned ZoneHVAC object found.  This was object never referenced in the input, and was not used.\n   **   ~~~   **  -- Object type: ZoneHVAC:Baseboard:Convective:Water\n   **   ~~~   **  -- Object name: Zone HVAC Baseboard Convective Water 26\n   ** Severe  ** Orphaned ZoneHVAC object found.  This was object never referenced in the input, and was not used.\n   **   ~~~   **  -- Object type: ZoneHVAC:Baseboard:Convective:Water\n   **   ~~~   **  -- Object name: Zone HVAC Baseboard Convective Water 27\n   ************* There are 27 unused objects in input.\n   ************* Use Output:Diagnostics,DisplayUnusedObjects; to see them.\n   ************* There are 9 unused schedules in input.\n   ************* There are 9 unused week schedules in input.\n   ************* There are 19 unused day schedules in input.\n   ************* Use Output:Diagnostics,DisplayUnusedSchedules; to see them.\n   *************\n   ************* ===== Recurring Error Summary =====\n   ************* The following recurring error messages occurred.\n   *************\n   *************  ** Warning ** CalcDoe2DXCoil: Coil:Cooling:DX:SingleSpeed=\"COIL COOLING DX SINGLE SPEED 7 14KBTU/HR 9.5EER\" - Low condenser dry-bulb temperature error continues...\n   *************  **   ~~~   **   This error occurred 2984 total times;\n   *************  **   ~~~   **   during Warmup 0 times;\n   *************  **   ~~~   **   during Sizing 0 times.\n   *************  **   ~~~   **   Max=-1.387779E-017 [C]  Min=-23.6 [C]\n   *************\n   *************  ** Warning ** CalcDoe2DXCoil: Coil:Cooling:DX:SingleSpeed=\"COIL COOLING DX SINGLE SPEED 8 14KBTU/HR 9.4EER\" - Low condenser dry-bulb temperature error continues...\n   *************  **   ~~~   **   This error occurred 2923 total times;\n   *************  **   ~~~   **   during Warmup 0 times;\n   *************  **   ~~~   **   during Sizing 0 times.\n   *************  **   ~~~   **   Max=-1.387779E-017 [C]  Min=-23.6 [C]\n   *************\n   *************  ** Warning ** CalcDoe2DXCoil: Coil:Cooling:DX:SingleSpeed=\"COIL COOLING DX SINGLE SPEED 9 19KBTU/HR 9.3EER\" - Low condenser dry-bulb temperature error continues...\n   *************  **   ~~~   **   This error occurred 1998 total times;\n   *************  **   ~~~   **   during Warmup 0 times;\n   *************  **   ~~~   **   during Sizing 0 times.\n   *************  **   ~~~   **   Max=-1.110223E-016 [C]  Min=-23.6 [C]\n   *************\n   *************  ** Warning ** CalcDoe2DXCoil: Coil:Cooling:DX:SingleSpeed=\"COIL COOLING DX SINGLE SPEED 15 16KBTU/HR 9.3EER\" - Low condenser dry-bulb temperature error continues...\n   *************  **   ~~~   **   This error occurred 4284 total times;\n   *************  **   ~~~   **   during Warmup 0 times;\n   *************  **   ~~~   **   during Sizing 0 times.\n   *************  **   ~~~   **   Max=-1.387779E-017 [C]  Min=-24.7 [C]\n   *************\n   *************  ** Warning ** CalcDoe2DXCoil: Coil:Cooling:DX:SingleSpeed=\"COIL COOLING DX SINGLE SPEED 16 16KBTU/HR 9.3EER\" - Low condenser dry-bulb temperature error continues...\n   *************  **   ~~~   **   This error occurred 4282 total times;\n   *************  **   ~~~   **   during Warmup 0 times;\n   *************  **   ~~~   **   during Sizing 0 times.\n   *************  **   ~~~   **   Max=-1.387779E-017 [C]  Min=-24.7 [C]\n   *************\n   *************  ** Warning ** CalcDoe2DXCoil: Coil:Cooling:DX:SingleSpeed=\"COIL COOLING DX SINGLE SPEED 17 19KBTU/HR 9.3EER\" - Low condenser dry-bulb temperature error continues...\n   *************  **   ~~~   **   This error occurred 2736 total times;\n   *************  **   ~~~   **   during Warmup 0 times;\n   *************  **   ~~~   **   during Sizing 0 times.\n   *************  **   ~~~   **   Max=-1.387779E-017 [C]  Min=-23.6 [C]\n   *************\n   *************  ** Warning ** CalcDoe2DXCoil: Coil:Cooling:DX:SingleSpeed=\"COIL COOLING DX SINGLE SPEED 18 21KBTU/HR 9.3EER\" - Low condenser dry-bulb temperature error continues...\n   *************  **   ~~~   **   This error occurred 2629 total times;\n   *************  **   ~~~   **   during Warmup 0 times;\n   *************  **   ~~~   **   during Sizing 0 times.\n   *************  **   ~~~   **   Max=-1.387779E-017 [C]  Min=-24.2 [C]\n   *************\n   *************  ** Warning ** CalcDoe2DXCoil: Coil:Cooling:DX:SingleSpeed=\"COIL COOLING DX SINGLE SPEED 24 23KBTU/HR 9.3EER\" - Low condenser dry-bulb temperature error continues...\n   *************  **   ~~~   **   This error occurred 1434 total times;\n   *************  **   ~~~   **   during Warmup 0 times;\n   *************  **   ~~~   **   during Sizing 0 times.\n   *************  **   ~~~   **   Max=-2.500000E-002 [C]  Min=-23.075 [C]\n   *************\n   *************  ** Warning ** CalcDoe2DXCoil: Coil:Cooling:DX:SingleSpeed=\"COIL COOLING DX SINGLE SPEED 25 23KBTU/HR 9.3EER\" - Low condenser dry-bulb temperature error continues...\n   *************  **   ~~~   **   This error occurred 1419 total times;\n   *************  **   ~~~   **   during Warmup 0 times;\n   *************  **   ~~~   **   during Sizing 0 times.\n   *************  **   ~~~   **   Max=-2.500000E-002 [C]  Min=-23.075 [C]\n   *************\n   *************  ** Warning ** CalcDoe2DXCoil: Coil:Cooling:DX:SingleSpeed=\"COIL COOLING DX SINGLE SPEED 26 26KBTU/HR 9.3EER\" - Low condenser dry-bulb temperature error continues...\n   *************  **   ~~~   **   This error occurred 1357 total times;\n   *************  **   ~~~   **   during Warmup 0 times;\n   *************  **   ~~~   **   during Sizing 0 times.\n   *************  **   ~~~   **   Max=-1.110223E-016 [C]  Min=-22.775 [C]\n   *************\n   *************  ** Warning ** CalcDoe2DXCoil: Coil:Cooling:DX:SingleSpeed=\"COIL COOLING DX SINGLE SPEED 27 26KBTU/HR 9.3EER\" - Low condenser dry-bulb temperature error continues...\n   *************  **   ~~~   **   This error occurred 1221 total times;\n   *************  **   ~~~   **   during Warmup 0 times;\n   *************  **   ~~~   **   during Sizing 0 times.\n   *************  **   ~~~   **   Max=-2.500000E-002 [C]  Min=-23.075 [C]\n   *************\n   *************  ** Warning ** CalcDoe2DXCoil: Coil:Cooling:DX:SingleSpeed=\"COIL COOLING DX SINGLE SPEED 14 9KBTU/HR 10.6EER\" - Low condenser dry-bulb temperature error continues...\n   *************  **   ~~~   **   This error occurred 1739 total times;\n   *************  **   ~~~   **   during Warmup 0 times;\n   *************  **   ~~~   **   during Sizing 0 times.\n   *************  **   ~~~   **   Max=-1.387779E-017 [C]  Min=-17.4 [C]\n   *************\n   *************  ** Warning ** CalcDoe2DXCoil: Coil:Cooling:DX:SingleSpeed=\"COIL COOLING DX SINGLE SPEED 6 8KBTU/HR 10.8EER\" - Low condenser dry-bulb temperature error continues...\n   *************  **   ~~~   **   This error occurred 638 total times;\n   *************  **   ~~~   **   during Warmup 0 times;\n   *************  **   ~~~   **   during Sizing 0 times.\n   *************  **   ~~~   **   Max=-2.500000E-002 [C]  Min=-16.425 [C]\n   *************\n   *************  ** Warning ** CalcDoe2DXCoil: Coil:Cooling:DX:SingleSpeed=\"COIL COOLING DX SINGLE SPEED 23 15KBTU/HR 9.3EER\" - Low condenser dry-bulb temperature error continues...\n   *************  **   ~~~   **   This error occurred 342 total times;\n   *************  **   ~~~   **   during Warmup 0 times;\n   *************  **   ~~~   **   during Sizing 0 times.\n   *************  **   ~~~   **   Max=-2.500000E-002 [C]  Min=-12.725 [C]\n   *************\n   *************  ** Warning ** CalcDoe2DXCoil: Coil:Cooling:DX:SingleSpeed=\"COIL COOLING DX SINGLE SPEED 5 17KBTU/HR 9.3EER\" - Low condenser dry-bulb temperature error continues...\n   *************  **   ~~~   **   This error occurred 309 total times;\n   *************  **   ~~~   **   during Warmup 0 times;\n   *************  **   ~~~   **   during Sizing 0 times.\n   *************  **   ~~~   **   Max=-2.500000E-002 [C]  Min=-16.1 [C]\n   *************\n   *************  ** Warning ** CalcDoe2DXCoil: Coil:Cooling:DX:SingleSpeed=\"COIL COOLING DX SINGLE SPEED 13 19KBTU/HR 9.3EER\" - Low condenser dry-bulb temperature error continues...\n   *************  **   ~~~   **   This error occurred 616 total times;\n   *************  **   ~~~   **   during Warmup 0 times;\n   *************  **   ~~~   **   during Sizing 0 times.\n   *************  **   ~~~   **   Max=-2.500000E-002 [C]  Min=-16.1 [C]\n   *************\n   *************  ** Warning ** CalcDoe2DXCoil: Coil:Cooling:DX:SingleSpeed=\"COIL COOLING DX SINGLE SPEED 22 23KBTU/HR 9.3EER\" - Low condenser dry-bulb temperature error continues...\n   *************  **   ~~~   **   This error occurred 176 total times;\n   *************  **   ~~~   **   during Warmup 0 times;\n   *************  **   ~~~   **   during Sizing 0 times.\n   *************  **   ~~~   **   Max=-2.500000E-002 [C]  Min=-11.7 [C]\n   *************\n   *************  ** Warning ** CalcDoe2DXCoil: Coil:Cooling:DX:SingleSpeed=\"COIL COOLING DX SINGLE SPEED 10 8KBTU/HR 10.8EER\" - Low condenser dry-bulb temperature error continues...\n   *************  **   ~~~   **   This error occurred 832 total times;\n   *************  **   ~~~   **   during Warmup 0 times;\n   *************  **   ~~~   **   during Sizing 0 times.\n   *************  **   ~~~   **   Max=-2.775558E-017 [C]  Min=-7.7 [C]\n   *************\n   *************  ** Warning ** CalcDoe2DXCoil: Coil:Cooling:DX:SingleSpeed=\"COIL COOLING DX SINGLE SPEED 11 7KBTU/HR 10.9EER\" - Low condenser dry-bulb temperature error continues...\n   *************  **   ~~~   **   This error occurred 738 total times;\n   *************  **   ~~~   **   during Warmup 0 times;\n   *************  **   ~~~   **   during Sizing 0 times.\n   *************  **   ~~~   **   Max=-2.775558E-017 [C]  Min=-7.7 [C]\n   *************\n   *************  ** Warning ** CalcDoe2DXCoil: Coil:Cooling:DX:SingleSpeed=\"COIL COOLING DX SINGLE SPEED 4 17KBTU/HR 9.3EER\" - Low condenser dry-bulb temperature error continues...\n   *************  **   ~~~   **   This error occurred 113 total times;\n   *************  **   ~~~   **   during Warmup 0 times;\n   *************  **   ~~~   **   during Sizing 0 times.\n   *************  **   ~~~   **   Max=-0.1 [C]  Min=-6.175 [C]\n   *************\n   *************  ** Warning ** CalcDoe2DXCoil: Coil:Cooling:DX:SingleSpeed=\"COIL COOLING DX SINGLE SPEED 2 7KBTU/HR 11.0EER\" - Low condenser dry-bulb temperature error continues...\n   *************  **   ~~~   **   This error occurred 153 total times;\n   *************  **   ~~~   **   during Warmup 0 times;\n   *************  **   ~~~   **   during Sizing 0 times.\n   *************  **   ~~~   **   Max=-2.500000E-002 [C]  Min=-6.85 [C]\n   *************\n   *************  ** Warning ** CalcDoe2DXCoil: Coil:Cooling:DX:SingleSpeed=\"COIL COOLING DX SINGLE SPEED 12 18KBTU/HR 9.3EER\" - Low condenser dry-bulb temperature error continues...\n   *************  **   ~~~   **   This error occurred 184 total times;\n   *************  **   ~~~   **   during Warmup 0 times;\n   *************  **   ~~~   **   during Sizing 0 times.\n   *************  **   ~~~   **   Max=-2.500000E-002 [C]  Min=-5.2 [C]\n   *************\n   *************  ** Warning ** CalcDoe2DXCoil: Coil:Cooling:DX:SingleSpeed=\"COIL COOLING DX SINGLE SPEED 3 7KBTU/HR 11.0EER\" - Low condenser dry-bulb temperature error continues...\n   *************  **   ~~~   **   This error occurred 108 total times;\n   *************  **   ~~~   **   during Warmup 0 times;\n   *************  **   ~~~   **   during Sizing 0 times.\n   *************  **   ~~~   **   Max=-2.500000E-002 [C]  Min=-3.5 [C]\n   *************\n   *************  ** Warning ** CalcDoe2DXCoil: Coil:Cooling:DX:SingleSpeed=\"COIL COOLING DX SINGLE SPEED 21 22KBTU/HR 9.3EER\" - Low condenser dry-bulb temperature error continues...\n   *************  ** 
[...]
=>0.0, \"cool_cost\"=>0.0, \"heatcool_cost\"=>0.0, \"num_units\"=>nil, \"cummultive_cost\"=>3371.78}, {\"systype\"=>\"PTAC\", \"zone_number\"=>3, \"zone_name\"=>\"Sp-G N2 Apartment Sys-1 Flr-1 Sch-G HPlcmt-north ZN\", \"zone_multiple\"=>1, \"heat_capacity(kW)\"=>2.3, \"cool_capacity(kW)\"=>2.0, \"heat_cost\"=>0.0, \"cool_cost\"=>1685.89, \"heatcool_cost\"=>0.0, \"num_units\"=>1.0, \"cummultive_cost\"=>5057.67}, {\"systype\"=>nil, \"zone_number\"=>3, \"zone_name\"=>\"Sp-G N2 Apartment Sys-1 Flr-1 Sch-G HPlcmt-north ZN\", \"zone_multiple\"=>1, \"heat_capacity(kW)\"=>2.3, \"cool_capacity(kW)\"=>0.0, \"heat_cost\"=>0.0, \"cool_cost\"=>0.0, \"heatcool_cost\"=>0.0, \"num_units\"=>nil, \"cummultive_cost\"=>5057.67}, {\"systype\"=>\"PTAC\", \"zone_number\"=>4, \"zone_name\"=>\"Sp-G NE Apartment Sys-1 Flr-1 Sch-G HPlcmt-north ZN\", \"zone_multiple\"=>1, \"heat_capacity(kW)\"=>3.2, \"cool_capacity(kW)\"=>4.9, \"heat_cost\"=>0.0, \"cool_cost\"=>3109.74, \"heatcool_cost\"=>0.0, \"num_units\"=>1.0, \"cummultive_cost\"=>8167.41}, {\"systype\"=>nil, \"zone_number\"=>4, \"zone_name\"=>\"Sp-G NE Apartment Sys-1 Flr-1 Sch-G HPlcmt-north ZN\", \"zone_multiple\"=>1, \"heat_capacity(kW)\"=>3.2, \"cool_capacity(kW)\"=>0.0, \"heat_cost\"=>0.0, \"cool_cost\"=>0.0, \"heatcool_cost\"=>0.0, \"num_units\"=>nil, \"cummultive_cost\"=>8167.41}, {\"systype\"=>\"PTAC\", \"zone_number\"=>5, \"zone_name\"=>\"Sp-G NW Apartment Sys-1 Flr-1 Sch-G HPlcmt-north ZN\", \"zone_multiple\"=>1, \"heat_capacity(kW)\"=>3.2, \"cool_capacity(kW)\"=>5.1, \"heat_cost\"=>0.0, \"cool_cost\"=>3109.74, \"heatcool_cost\"=>0.0, \"num_units\"=>1.0, \"cummultive_cost\"=>11277.15}, {\"systype\"=>nil, \"zone_number\"=>5, \"zone_name\"=>\"Sp-G NW Apartment Sys-1 Flr-1 Sch-G HPlcmt-north ZN\", \"zone_multiple\"=>1, \"heat_capacity(kW)\"=>3.2, \"cool_capacity(kW)\"=>0.0, \"heat_cost\"=>0.0, \"cool_cost\"=>0.0, \"heatcool_cost\"=>0.0, \"num_units\"=>nil, \"cummultive_cost\"=>11277.15}, {\"systype\"=>\"PTAC\", \"zone_number\"=>6, \"zone_name\"=>\"Sp-G S1 Apartment Sys-1 Flr-1 Sch-G HPlcmt-south ZN\", \"zone_multiple\"=>1, \"heat_capacity(kW)\"=>2.3, \"cool_capacity(kW)\"=>4.1, \"heat_cost\"=>0.0, \"cool_cost\"=>2184.74, \"heatcool_cost\"=>0.0, \"num_units\"=>1.0, \"cummultive_cost\"=>13461.89}, {\"systype\"=>nil, \"zone_number\"=>6, \"zone_name\"=>\"Sp-G S1 Apartment Sys-1 Flr-1 Sch-G HPlcmt-south ZN\", \"zone_multiple\"=>1, \"heat_capacity(kW)\"=>2.3, \"cool_capacity(kW)\"=>0.0, \"heat_cost\"=>0.0, \"cool_cost\"=>0.0, \"heatcool_cost\"=>0.0, \"num_units\"=>nil, \"cummultive_cost\"=>13461.89}, {\"systype\"=>\"PTAC\", \"zone_number\"=>7, \"zone_name\"=>\"Sp-G S2 Apartment Sys-1 Flr-1 Sch-G HPlcmt-south ZN\", \"zone_multiple\"=>1, \"heat_capacity(kW)\"=>2.3, \"cool_capacity(kW)\"=>4.2, \"heat_cost\"=>0.0, \"cool_cost\"=>2184.74, \"heatcool_cost\"=>0.0, \"num_units\"=>1.0, \"cummultive_cost\"=>15646.63}, {\"systype\"=>nil, \"zone_number\"=>7, \"zone_name\"=>\"Sp-G S2 Apartment Sys-1 Flr-1 Sch-G HPlcmt-south ZN\", \"zone_multiple\"=>1, \"heat_capacity(kW)\"=>2.3, \"cool_capacity(kW)\"=>0.0, \"heat_cost\"=>0.0, \"cool_cost\"=>0.0, \"heatcool_cost\"=>0.0, \"num_units\"=>nil, \"cummultive_cost\"=>15646.63}, {\"systype\"=>\"PTAC\", \"zone_number\"=>8, \"zone_name\"=>\"Sp-G SW Apartment Sys-1 Flr-1 Sch-G HPlcmt-south ZN\", \"zone_multiple\"=>1, \"heat_capacity(kW)\"=>3.2, \"cool_capacity(kW)\"=>5.5, \"heat_cost\"=>0.0, \"cool_cost\"=>3244.12, \"heatcool_cost\"=>0.0, \"num_units\"=>1.0, \"cummultive_cost\"=>18890.75}, {\"systype\"=>nil, \"zone_number\"=>8, \"zone_name\"=>\"Sp-G SW Apartment Sys-1 Flr-1 Sch-G HPlcmt-south ZN\", \"zone_multiple\"=>1, \"heat_capacity(kW)\"=>3.2, \"cool_capacity(kW)\"=>0.0, \"heat_cost\"=>0.0, \"cool_cost\"=>0.0, \"heatcool_cost\"=>0.0, \"num_units\"=>nil, \"cummultive_cost\"=>18890.75}, {\"systype\"=>\"PTAC\", \"zone_number\"=>9, \"zone_name\"=>\"Sp-M Corridor Sys-1 Flr-2 Sch-G HPlcmt-east ZN\", \"zone_multiple\"=>2, \"heat_capacity(kW)\"=>7.0, \"cool_capacity(kW)\"=>5.4, \"heat_cost\"=>0.0, \"cool_cost\"=>3679.98, \"heatcool_cost\"=>0.0, \"num_units\"=>1.0, \"cummultive_cost\"=>22570.73}, {\"systype\"=>nil, \"zone_number\"=>9, \"zone_name\"=>\"Sp-M Corridor Sys-1 Flr-2 Sch-G HPlcmt-east ZN\", \"zone_multiple\"=>2, \"heat_capacity(kW)\"=>7.0, \"cool_capacity(kW)\"=>0.0, \"heat_cost\"=>0.0, \"cool_cost\"=>0.0, \"heatcool_cost\"=>0.0, \"num_units\"=>nil, \"cummultive_cost\"=>22570.73}, {\"systype\"=>\"PTAC\", \"zone_number\"=>10, \"zone_name\"=>\"Sp-M N1 Apartment Sys-1 Flr-2 Sch-G HPlcmt-north ZN\", \"zone_multiple\"=>2, \"heat_capacity(kW)\"=>5.4, \"cool_capacity(kW)\"=>4.7, \"heat_cost\"=>0.0, \"cool_cost\"=>3371.78, \"heatcool_cost\"=>0.0, \"num_units\"=>1.0, \"cummultive_cost\"=>25942.51}, {\"systype\"=>nil, \"zone_number\"=>10, \"zone_name\"=>\"Sp-M N1 Apartment Sys-1 Flr-2 Sch-G HPlcmt-north ZN\", \"zone_multiple\"=>2, \"heat_capacity(kW)\"=>5.4, \"cool_capacity(kW)\"=>0.0, \"heat_cost\"=>0.0, \"cool_cost\"=>0.0, \"heatcool_cost\"=>0.0, \"num_units\"=>nil, \"cummultive_cost\"=>25942.51}, {\"systype\"=>\"PTAC\", \"zone_number\"=>11, \"zone_name\"=>\"Sp-M N2 Apartment Sys-1 Flr-2 Sch-G HPlcmt-north ZN\", \"zone_multiple\"=>2, \"heat_capacity(kW)\"=>5.4, \"cool_capacity(kW)\"=>4.4, \"heat_cost\"=>0.0, \"cool_cost\"=>3371.78, \"heatcool_cost\"=>0.0, \"num_units\"=>1.0, \"cummultive_cost\"=>29314.29}, {\"systype\"=>nil, \"zone_number\"=>11, \"zone_name\"=>\"Sp-M N2 Apartment Sys-1 Flr-2 Sch-G HPlcmt-north ZN\", \"zone_multiple\"=>2, \"heat_capacity(kW)\"=>5.4, \"cool_capacity(kW)\"=>0.0, \"heat_cost\"=>0.0, \"cool_cost\"=>0.0, \"heatcool_cost\"=>0.0, \"num_units\"=>nil, \"cummultive_cost\"=>29314.29}, {\"systype\"=>\"PTAC\", \"zone_number\"=>12, \"zone_name\"=>\"Sp-M NE Apartment Sys-1 Flr-2 Sch-G HPlcmt-north ZN\", \"zone_multiple\"=>2, \"heat_capacity(kW)\"=>7.5, \"cool_capacity(kW)\"=>10.6, \"heat_cost\"=>0.0, \"cool_cost\"=>6488.23, \"heatcool_cost\"=>0.0, \"num_units\"=>1.0, \"cummultive_cost\"=>35802.52}, {\"systype\"=>nil, \"zone_number\"=>12, \"zone_name\"=>\"Sp-M NE Apartment Sys-1 Flr-2 Sch-G HPlcmt-north ZN\", \"zone_multiple\"=>2, \"heat_capacity(kW)\"=>7.5, \"cool_capacity(kW)\"=>0.0, \"heat_cost\"=>0.0, \"cool_cost\"=>0.0, \"heatcool_cost\"=>0.0, \"num_units\"=>nil, \"cummultive_cost\"=>35802.52}, {\"systype\"=>\"PTAC\", \"zone_number\"=>13, \"zone_name\"=>\"Sp-M NW Apartment Sys-1 Flr-2 Sch-G HPlcmt-north ZN\", \"zone_multiple\"=>2, \"heat_capacity(kW)\"=>7.5, \"cool_capacity(kW)\"=>11.4, \"heat_cost\"=>0.0, \"cool_cost\"=>6488.23, \"heatcool_cost\"=>0.0, \"num_units\"=>1.0, \"cummultive_cost\"=>42290.75}, {\"systype\"=>nil, \"zone_number\"=>13, \"zone_name\"=>\"Sp-M NW Apartment Sys-1 Flr-2 Sch-G HPlcmt-north ZN\", \"zone_multiple\"=>2, \"heat_capacity(kW)\"=>7.5, \"cool_capacity(kW)\"=>0.0, \"heat_cost\"=>0.0, \"cool_cost\"=>0.0, \"heatcool_cost\"=>0.0, \"num_units\"=>nil, \"cummultive_cost\"=>42290.75}, {\"systype\"=>\"PTAC\", \"zone_number\"=>14, \"zone_name\"=>\"Sp-M S1 Apartment Sys-1 Flr-2 Sch-G HPlcmt-south ZN\", \"zone_multiple\"=>2, \"heat_capacity(kW)\"=>5.5, \"cool_capacity(kW)\"=>9.2, \"heat_cost\"=>0.0, \"cool_cost\"=>6219.48, \"heatcool_cost\"=>0.0, \"num_units\"=>1.0, \"cummultive_cost\"=>48510.23}, {\"systype\"=>nil, \"zone_number\"=>14, \"zone_name\"=>\"Sp-M S1 Apartment Sys-1 Flr-2 Sch-G HPlcmt-south ZN\", \"zone_multiple\"=>2, \"heat_capacity(kW)\"=>5.5, \"cool_capacity(kW)\"=>0.0, \"heat_cost\"=>0.0, \"cool_cost\"=>0.0, \"heatcool_cost\"=>0.0, \"num_units\"=>nil, \"cummultive_cost\"=>48510.23}, {\"systype\"=>\"PTAC\", \"zone_number\"=>15, \"zone_name\"=>\"Sp-M S2 Apartment Sys-1 Flr-2 Sch-G HPlcmt-south ZN\", \"zone_multiple\"=>2, \"heat_capacity(kW)\"=>5.5, \"cool_capacity(kW)\"=>9.3, \"heat_cost\"=>0.0, \"cool_cost\"=>6219.48, \"heatcool_cost\"=>0.0, \"num_units\"=>1.0, \"cummultive_cost\"=>54729.71}, {\"systype\"=>nil, \"zone_number\"=>15, \"zone_name\"=>\"Sp-M S2 Apartment Sys-1 Flr-2 Sch-G HPlcmt-south ZN\", \"zone_multiple\"=>2, \"heat_capacity(kW)\"=>5.5, \"cool_capacity(kW)\"=>0.0, \"heat_cost\"=>0.0, \"cool_cost\"=>0.0, \"heatcool_cost\"=>0.0, \"num_units\"=>nil, \"cummultive_cost\"=>54729.71}, {\"systype\"=>\"PTAC\", \"zone_number\"=>16, \"zone_name\"=>\"Sp-M SE Apartment Sys-1 Flr-2 Sch-G HPlcmt-south ZN\", \"zone_multiple\"=>2, \"heat_capacity(kW)\"=>7.5, \"cool_capacity(kW)\"=>11.3, \"heat_cost\"=>0.0, \"cool_cost\"=>6488.23, \"heatcool_cost\"=>0.0, \"num_units\"=>1.0, \"cummultive_cost\"=>61217.94}, {\"systype\"=>nil, \"zone_number\"=>16, \"zone_name\"=>\"Sp-M SE Apartment Sys-1 Flr-2 Sch-G HPlcmt-south ZN\", \"zone_multiple\"=>2, \"heat_capacity(kW)\"=>7.5, \"cool_capacity(kW)\"=>0.0, \"heat_cost\"=>0.0, \"cool_cost\"=>0.0, \"heatcool_cost\"=>0.0, \"num_units\"=>nil, \"cummultive_cost\"=>61217.94}, {\"systype\"=>\"PTAC\", \"zone_number\"=>17, \"zone_name\"=>\"Sp-M SW Apartment Sys-1 Flr-2 Sch-G HPlcmt-south ZN\", \"zone_multiple\"=>2, \"heat_capacity(kW)\"=>7.6, \"cool_capacity(kW)\"=>12.5, \"heat_cost\"=>0.0, \"cool_cost\"=>6488.23, \"heatcool_cost\"=>0.0, \"num_units\"=>1.0, \"cummultive_cost\"=>67706.17}, {\"systype\"=>nil, \"zone_number\"=>17, \"zone_name\"=>\"Sp-M SW Apartment Sys-1 Flr-2 Sch-G HPlcmt-south ZN\", \"zone_multiple\"=>2, \"heat_capacity(kW)\"=>7.6, \"cool_capacity(kW)\"=>0.0, \"heat_cost\"=>0.0, \"cool_cost\"=>0.0, \"heatcool_cost\"=>0.0, \"num_units\"=>nil, \"cummultive_cost\"=>67706.17}, {\"systype\"=>nil, \"zone_number\"=>18, \"zone_name\"=>\"Sp-Office Sys-3 Flr-1 Sch-C HPlcmt-south ZN\", \"zone_multiple\"=>1, \"heat_capacity(kW)\"=>3.5, \"cool_capacity(kW)\"=>0.0, \"heat_cost\"=>0.0, \"cool_cost\"=>0.0, \"heatcool_cost\"=>0.0, \"num_units\"=>nil, \"cummultive_cost\"=>67706.17}, {\"systype\"=>\"PTAC\", \"zone_number\"=>19, \"zone_name\"=>\"Sp-T Corridor Sys-1 Flr-3 Sch-G HPlcmt-west ZN\", \"zone_multiple\"=>1, \"heat_capacity(kW)\"=>5.0, \"cool_capacity(kW)\"=>4.5, \"heat_cost\"=>0.0, \"cool_cost\"=>3109.74, \"heatcool_cost\"=>0.0, \"num_units\"=>1.0, \"cummultive_cost\"=>70815.91}, {\"systype\"=>nil, \"zone_number\"=>19, \"zone_name\"=>\"Sp-T Corridor Sys-1 Flr-3 Sch-G HPlcmt-west ZN\", \"zone_multiple\"=>1, \"heat_capacity(kW)\"=>5.0, \"cool_capacity(kW)\"=>0.0, \"heat_cost\"=>0.0, \"cool_cost\"=>0.0, \"heatcool_cost\"=>0.0, \"num_units\"=>nil, \"cummultive_cost\"=>70815.91}, {\"systype\"=>\"PTAC\", \"zone_number\"=>20, \"zone_name\"=>\"Sp-T N1 Apartment Sys-1 Flr-3 Sch-G HPlcmt-north ZN\", \"zone_multiple\"=>1, \"heat_capacity(kW)\"=>4.1, \"cool_capacity(kW)\"=>3.5, \"heat_cost\"=>0.0, \"cool_cost\"=>1839.99, \"heatcool_cost\"=>0.0, \"num_units\"=>1.0, \"cummultive_cost\"=>72655.9}, {\"systype\"=>nil, \"zone_number\"=>20, \"zone_name\"=>\"Sp-T N1 Apartment Sys-1 Flr-3 Sch-G HPlcmt-north ZN\", \"zone_multiple\"=>1, \"heat_capacity(kW)\"=>4.1, \"cool_capacity(kW)\"=>0.0, \"heat_cost\"=>0.0, \"cool_cost\"=>0.0, \"heatcool_cost\"=>0.0, \"num_units\"=>nil, \"cummultive_cost\"=>72655.9}, {\"systype\"=>\"PTAC\", \"zone_number\"=>21, \"zone_name\"=>\"Sp-T N2 Apartment Sys-1 Flr-3 Sch-G HPlcmt-north ZN\", \"zone_multiple\"=>1, \"heat_capacity(kW)\"=>4.1, \"cool_capacity(kW)\"=>3.5, \"heat_cost\"=>0.0, \"cool_cost\"=>1839.99, \"heatcool_cost\"=>0.0, \"num_units\"=>1.0, \"cummultive_cost\"=>74495.89}, {\"systype\"=>nil, \"zone_number\"=>21, \"zone_name\"=>\"Sp-T N2 Apartment Sys-1 Flr-3 Sch-G HPlcmt-north ZN\", \"zone_multiple\"=>1, \"heat_capacity(kW)\"=>4.1, \"cool_capacity(kW)\"=>0.0, \"heat_cost\"=>0.0, \"cool_cost\"=>0.0, \"heatcool_cost\"=>0.0, \"num_units\"=>nil, \"cummultive_cost\"=>74495.89}, {\"systype\"=>\"PTAC\", \"zone_number\"=>22, \"zone_name\"=>\"Sp-T NE Apartment Sys-1 Flr-3 Sch-G HPlcmt-north ZN\", \"zone_multiple\"=>1, \"heat_capacity(kW)\"=>5.1, \"cool_capacity(kW)\"=>6.3, \"heat_cost\"=>0.0, \"cool_cost\"=>3244.12, \"heatcool_cost\"=>0.0, \"num_units\"=>1.0, \"cummultive_cost\"=>77740.01}, {\"systype\"=>nil, \"zone_number\"=>22, \"zone_name\"=>\"Sp-T NE Apartment Sys-1 Flr-3 Sch-G HPlcmt-north ZN\", \"zone_multiple\"=>1, \"heat_capacity(kW)\"=>5.1, \"cool_capacity(kW)\"=>0.0, \"heat_cost\"=>0.0, \"cool_cost\"=>0.0, \"heatcool_cost\"=>0.0, \"num_units\"=>nil, \"cummultive_cost\"=>77740.01}, {\"systype\"=>\"PTAC\", \"zone_number\"=>23, \"zone_name\"=>\"Sp-T NW Apartment Sys-1 Flr-3 Sch-G HPlcmt-north ZN\", \"zone_multiple\"=>1, \"heat_capacity(kW)\"=>5.1, \"cool_capacity(kW)\"=>6.7, \"heat_cost\"=>0.0, \"cool_cost\"=>3244.12, \"heatcool_cost\"=>0.0, \"num_units\"=>1.0, \"cummultive_cost\"=>80984.12}, {\"systype\"=>nil, \"zone_number\"=>23, \"zone_name\"=>\"Sp-T NW Apartment Sys-1 Flr-3 Sch-G HPlcmt-north ZN\", \"zone_multiple\"=>1, \"heat_capacity(kW)\"=>5.1, \"cool_capacity(kW)\"=>0.0, \"heat_cost\"=>0.0, \"cool_cost\"=>0.0, \"heatcool_cost\"=>0.0, \"num_units\"=>nil, \"cummultive_cost\"=>80984.12}, {\"systype\"=>\"PTAC\", \"zone_number\"=>24, \"zone_name\"=>\"Sp-T S1 Apartment Sys-1 Flr-3 Sch-G HPlcmt-south ZN\", \"zone_multiple\"=>1, \"heat_capacity(kW)\"=>4.1, \"cool_capacity(kW)\"=>6.8, \"heat_cost\"=>0.0, \"cool_cost\"=>3244.12, \"heatcool_cost\"=>0.0, \"num_units\"=>1.0, \"cummultive_cost\"=>84228.24}, {\"systype\"=>nil, \"zone_number\"=>24, \"zone_name\"=>\"Sp-T S1 Apartment Sys-1 Flr-3 Sch-G HPlcmt-south ZN\", \"zone_multiple\"=>1, \"heat_capacity(kW)\"=>4.1, \"cool_capacity(kW)\"=>0.0, \"heat_cost\"=>0.0, \"cool_cost\"=>0.0, \"heatcool_cost\"=>0.0, \"num_units\"=>nil, \"cummultive_cost\"=>84228.24}, {\"systype\"=>\"PTAC\", \"zone_number\"=>25, \"zone_name\"=>\"Sp-T S2 Apartment Sys-1 Flr-3 Sch-G HPlcmt-south ZN\", \"zone_multiple\"=>1, \"heat_capacity(kW)\"=>4.1, \"cool_capacity(kW)\"=>6.8, \"heat_cost\"=>0.0, \"cool_cost\"=>3244.12, \"heatcool_cost\"=>0.0, \"num_units\"=>1.0, \"cummultive_cost\"=>87472.35}, {\"systype\"=>nil, \"zone_number\"=>25, \"zone_name\"=>\"Sp-T S2 Apartment Sys-1 Flr-3 Sch-G HPlcmt-south ZN\", \"zone_multiple\"=>1, \"heat_capacity(kW)\"=>4.1, \"cool_capacity(kW)\"=>0.0, \"heat_cost\"=>0.0, \"cool_cost\"=>0.0, \"heatcool_cost\"=>0.0, \"num_units\"=>nil, \"cummultive_cost\"=>87472.35}, {\"systype\"=>\"PTAC\", \"zone_number\"=>26, \"zone_name\"=>\"Sp-T SE Apartment Sys-1 Flr-3 Sch-G HPlcmt-south ZN\", \"zone_multiple\"=>1, \"heat_capacity(kW)\"=>5.1, \"cool_capacity(kW)\"=>7.5, \"heat_cost\"=>0.0, \"cool_cost\"=>3687.87, \"heatcool_cost\"=>0.0, \"num_units\"=>1.0, \"cummultive_cost\"=>91160.22}, {\"systype\"=>nil, \"zone_number\"=>26, \"zone_name\"=>\"Sp-T SE Apartment Sys-1 Flr-3 Sch-G HPlcmt-south ZN\", \"zone_multiple\"=>1, \"heat_capacity(kW)\"=>5.1, \"cool_capacity(kW)\"=>0.0, \"heat_cost\"=>0.0, \"cool_cost\"=>0.0, \"heatcool_cost\"=>0.0, \"num_units\"=>nil, \"cummultive_cost\"=>91160.22}, {\"systype\"=>\"PTAC\", \"zone_number\"=>27, \"zone_name\"=>\"Sp-T SW Apartment Sys-1 Flr-3 Sch-G HPlcmt-south ZN\", \"zone_multiple\"=>1, \"heat_capacity(kW)\"=>5.1, \"cool_capacity(kW)\"=>7.8, \"heat_cost\"=>0.0, \"cool_cost\"=>3687.87, \"heatcool_cost\"=>0.0, \"num_units\"=>1.0, \"cummultive_cost\"=>94848.08}, {\"systype\"=>nil, \"zone_number\"=>27, \"zone_name\"=>\"Sp-T SW Apartment Sys-1 Flr-3 Sch-G HPlcmt-south ZN\", \"zone_multiple\"=>1, \"heat_capacity(kW)\"=>5.1, \"cool_capacity(kW)\"=>0.0, \"heat_cost\"=>0.0, \"cool_cost\"=>0.0, \"heatcool_cost\"=>0.0, \"num_units\"=>nil, \"cummultive_cost\"=>94848.08}]}, \"shw\"=>{}, \"ventilation\"=>{}, \"totals\"=>{\"envelope\"=>217109.66, \"lighting\"=>82149.57, \"heating_and_cooling\"=>141415.37, \"shw\"=>0.0, \"ventilation\"=>163398.74, \"grand_total\"=>604073.35}, \"zonal systems\"=>{}}"
               },
               {
                  "name" : "total_envelope_cost",
                  "value" : 217109.66
               },
               {
                  "name" : "total_lighting_cost",
                  "value" : 82149.570000000007
               },
               {
                  "name" : "total_heating_cooling_cost",
                  "value" : 0
               },
               {
                  "name" : "total_shw_cost",
                  "value" : 0
               },
               {
                  "name" : "total_ventilation_cost",
                  "value" : 163398.73999999999
               },
               {
                  "name" : "total_capital_cost",
                  "value" : 0
               },
               {
                  "name" : "total_neb_utility_costs",
                  "value" : 20510.885200000001
               },
               {
                  "name" : "total_capital_and_energy_costs",
                  "value" : 20510.885200000001
               },
               {
                  "name" : "total_envelope_and_energy_costs",
                  "value" : 237620.54519999999
               }
            ],
            "step_warnings" : []
         }
      },
      {
         "arguments" : {},
         "description" : "Removes a significant portion of the saved results from each run, helping to alleviate memory problems.",
         "measure_dir_name" : "ServerDirectoryCleanup",
         "name" : "server_directory_cleanup",
         "result" : {
            "completed_at" : "20190517T152613Z",
            "measure_class_name" : "ServerDirectoryCleanup",
            "measure_display_name" : "Server Directory Cleanup",
            "measure_name" : "server_directory_cleanup",
            "measure_taxonomy" : "Calibration",
            "measure_type" : "ReportingMeasure",
            "measure_uid" : "ec7d04ad-0b7b-495b-825a-e1b6d28d1d3f",
            "measure_version_id" : "2e0a3f67-3aa6-42cc-b9ff-8aa66615c0a1",
            "measure_version_modified" : "20190226T195336Z",
            "measure_xml_checksum" : "5F1EDF75",
            "started_at" : "20190517T152613Z",
            "stderr" : "",
            "stdout" : "[OpenStudio.Measure] <0> OSArgumentVector is deprecated, use OpenStudio::Measure::OSArgumentVector instead.\n",
            "step_errors" : [],
            "step_files" : [],
            "step_final_condition" : "The following files were in the local run directory following to the execution of this measure: eplusout.mtr, 000_btap_create_necb_prototype_building, sqlite.err, run.log, in.epw, pre-preprocess.idf, measure_attributes.json, eplusout.rdd, 002_btap_utility_tariffs, 001_BTAPHeatPumpAirSystem, 003_ServerDirectoryCleanup, eplusout.mtd, stdout-expandobject, 004_ServerDirectoryCleanup, in.idf, ., eplusout.end, eplustbl.htm, stdout-energyplus, eplusout.err, 003_btap_results, started.job, ...",
            "step_info" : [
               "Deleted ./../eplusout.sql from the run directory.",
               "Deleted ./../eplusout.audit from the run directory.",
               "Deleted ./../in.osm from the run directory.",
               "Deleted ./../eplusout.bnd from the run directory.",
               "Deleted ./../eplusout.eio from the run directory.",
               "Deleted ./../eplusout.shd from the run directory.",
               "Deleted ./../eplusout.mdd from the run directory.",
               "Deleted ./../eplusssz.csv from the run directory.",
               "Deleted ./../epluszsz.csv from the run directory.",
               "Deleted ./../eplusout.eso from the run directory."
            ],
            "step_initial_condition" : "The following files were in the local run directory prior to the execution of this measure: in.osm, eplusout.sql, eplusssz.csv, eplusout.mtr, 000_btap_create_necb_prototype_building, sqlite.err, run.log, in.epw, pre-preprocess.idf, epluszsz.csv, eplusout.bnd, measure_attributes.json, eplusout.rdd, 002_btap_utility_tariffs, 001_BTAPHeatPumpAirSystem, 003_ServerDirectoryCleanup, eplusout.mtd, eplusout.eio, stdout-expandobject, eplusout.eso, 004_ServerDirectoryCleanup, in.idf, eplusout.shd, ., eplusout.end, eplustbl.htm, stdout-energyplus, eplusout.err, eplusout.audit, 003_btap_results, eplusout.mdd, started.job, ...",
            "step_result" : "Success",
            "step_values" : [],
            "step_warnings" : []
         }
      }
   ],
   "updated_at" : "20190517T152618Z",
   "weather_file" : "dummy.epw"
}
